/share/storage/pub/mstorti/saturne-vof/libexec/code_saturne/cs_preprocess --log 
--out mesh_input 
/share/storage/finzeo/GTS_Tunay_2/DATA/gts_converted10_floorTreatment.med 

  .------------------------------.
  |                              |
  |   Code_Saturne Preprocessor  |
  |                              |
  `------------------------------'

  code_saturne version 6.1-alpha   (built Tue 25 Aug 2020 04:47:33 PM ART)

  CGNS 3.4.0 file format support
  MED 3.2.0 (HDF5 1.8.14) file format support
  Reading of compressed files ('.gz') with Zlib 1.2.3



Case configuration
------------------

  Date                : Tue 26 Jul 2022 12:13:43 PM ART
  Processor           : Intel(R) Xeon(R) CPU E5-2650 v3 @ 2.30GHz
  Memory              : 132181124
  User                : finzeo ()
  Directory           : /share/storage/finzeo/GTS_Tunay_2/RESU/20220726-1213

  Case name           : preprocess
  Mesh file           : /share/storage/finzeo/GTS_Tunay_2/DATA/gts_converted10_floorTreatment.med



Reading mesh from file in MED (EDF/CEA) format
----------------------
  Mesh file: /share/storage/finzeo/GTS_Tunay_2/DATA/gts_converted10_floorTreatment.med


  Mesh name: gts_converted10_floorTreatment

  Number of vertices                          :  5525151
  Number of faces                             :   267258
                                   Family 1   :    45096
                                   Family 2   :      810
                                   Family 3   :      810
                                   Family 4   :     6912
                                   Family 5   :     8880
                                   Family 6   :   186880
                                   Family 7   :    17870
  Number of cells                             :  5205599
                                   Family 0   :  5205599

  Wall-clock time: 1.900587 s; CPU time: 1.898712 s


Done reading mesh
-----------------
  Theoretical mesh size:               412.585 Mb
  Theoretical current memory:          539.046 Mb
  Theoretical peak memory:             985.901 Mb
  Total memory used:                     1.127 Gb

  Domain coordinate extents:

  [-3.78000e+01, -1.80000e+01, -5.04000e-01]
  [ 1.17000e+02,  1.80000e+01,  3.20960e+01]
  Number of elements                    quad4 :   262774
  Number of elements                  polygon :     4484
  Number of elements                   penta6 :     5429
  Number of elements                    hexa8 :  5052845
  Number of elements               polyhedron :   147325



Defining families
-----------------


  Element orientation check.


Warning
=======
12 elements of type hexa8 are mis-oriented or highly warped


EnSight output of mesh: Orientation Error
-----------------------
  Creating file: preprocess.ensight/MESH.case
  Creating file: preprocess.ensight/mesh.geo

End of conversion to descending connectivity
--------------------------------------------
  Theoretical mesh size:               951.413 Mb
  Theoretical current memory:            1.053 Gb
  Theoretical peak memory:               2.343 Gb
  Total memory used:                     2.526 Gb


Main mesh properties
--------------------

  Number of cells:                               5205599
  Number of internal faces:                     15666750
  Number of boundary faces:                       267258
  Number of vertices:                            5525151


Definition of face and cell families
------------------------------------

  Family 1
         Group "bottomNoSlip"
  Number of boundary faces :   186880
  Family 2
         Group "bottomSlip"
  Number of boundary faces :    17870
  Family 3
         Group "gtsModel"
  Number of boundary faces :    45096
  Family 4
         Group "inlet"
  Number of boundary faces :      810
  Family 5
         Group "lateral"
  Number of boundary faces :     6912
  Family 6
         Group "outlet"
  Number of boundary faces :      810
  Family 7
         Group "top"
  Number of boundary faces :     8880
  Family 7
         Default family
         (no group)
  Number of cells          :  5205599
  Number of internal faces : 15666750


Write output for Kernel
-----------------------

  Opening file: mesh_input

  Wrote: "start_block:dimensions"
  Wrote: "n_cells"                         ; Type: "u8"; Size: 1
  Wrote: "n_faces"                         ; Type: "u8"; Size: 1
  Wrote: "n_vertices"                      ; Type: "u8"; Size: 1
  Wrote: "face_vertices_size"              ; Type: "u8"; Size: 1
  Wrote: "n_group_classes"                 ; Type: "i8"; Size: 1
  Wrote: "n_group_class_props_max"         ; Type: "i8"; Size: 1
  Wrote: "n_groups"                        ; Type: "u8"; Size: 1
  Wrote: "group_name_index"                ; Type: "i8"; Size: 8
  Wrote: "group_name"                      ; Type: "c "; Size: 58
  Wrote: "group_class_properties"          ; Type: "i8"; Size: 8
  Wrote: "end_block:dimensions"
  Wrote: "start_block:data"
  Wrote: "face_cells"                      ; Type: "i8"; Size: 31868016
  Wrote: "cell_group_class_id"             ; Type: "i8"; Size: 5205599
  Wrote: "face_group_class_id"             ; Type: "i8"; Size: 15934008
  Wrote: "face_vertices_index"             ; Type: "u8"; Size: 15934009
  Wrote: "face_vertices"                   ; Type: "i8"; Size: 63996177
  Wrote: "vertex_coords"                   ; Type: "r8"; Size: 16575453
  Wrote: "end_block:data"
  Wrote: "EOF"

  Closing file: mesh_input


Time and memory summary
-----------------------

  User CPU time                       (sec)   :       13.96
  System CPU time                     (sec)   :        2.30
  Total time                          (sec)   :       16.69
  Total CPU time / Total time                 :        0.97

Memory use summary:

  Total memory used:                                   2.526 Gb
  Theoretical instrumented dynamic memory:             2.343 Gb


  .-----------------------.
  |                       |
  |  Preprocessor finish  |
  |                       |
  `-----------------------'


