Start run at vie sep 2 14:51:36 ART 2022
PYTHON_CS_XFLAGS=' -O0 -g3 -ggdb3 -I/usr/include/jsoncpp ' /share/storage/pub/mstorti/saturne-vof/bin/code_saturne  run --param setup.xml

The following have been reloaded with a version change:
  1) llvm/6.0.0 => llvm/3.4.2


The following have been reloaded with a version change:
  1) llvm/3.4.2 => llvm/6.0.0


                      Code_Saturne
                      ************

 Version:   6.1-alpha
 Path:      /share/storage/pub/mstorti/saturne-vof

 Result directory:
   /share/storage/finzeo/GTS_Tunay_2/RESU/20220902-1451


 ****************************************
  Compiling user subroutines and linking
 ****************************************


 ****************************
  Preparing calculation data
 ****************************

 Parallel Code_Saturne on 100 processes.


 ***************************
  Preprocessing calculation
 ***************************


 **********************
  Starting calculation
 **********************

Warning: Process to core binding is enabled and OMP_NUM_THREADS is set to non-zero (1) value
If your program has OpenMP sections, this can cause over-subscription of cores and consequently poor performance
To avoid this, please re-run your application after setting MV2_ENABLE_AFFINITY=0
Use MV2_USE_THREAD_WARNING=0 to suppress this message
step 1, time 0.000800, maxvel 30.000000, total vol 183257, vol(u>maxvel) 7.59151, cell count 1228975
bounding box (containing cells with vel>maxvel): xmin -12.2899 -1.84599 -0.484622, xmax 0.210206 1.84599 4.03086m 
bounding box of vehicle: xmin -12.2 -1.30008 -6.44084e-18, xmax 6.64751e-18 1.30008 3.6m 
gts area: 163.426 
yplus max: 105.298, yplus min: 0 
position of yplus max: -8.09529 -1.21164 3.58697 
yplus prom: 6.80335 
forces: 49818883.573227 -791.894961 -5788593.242983 
Drag coefficient: 13902.898923 
torque (ref. CG): 1108.652946 (roll) 34436018.220319 (pitch) 4830.559264 (yaw) 
----------------------------------------------------- 
step 2, time 0.001600, maxvel 30.000000, total vol 183257, vol(u>maxvel) 7.84387, cell count 1520677
bounding box (containing cells with vel>maxvel): xmin -12.2898 -1.84628 -0.489173, xmax 0.21324 1.84631 4.10545m 
bounding box of vehicle: xmin -12.2 -1.30008 -6.44084e-18, xmax 6.64751e-18 1.30008 3.6m 
gts area: 163.426 
yplus max: 109.029, yplus min: 0.188601 
position of yplus max: -8.09529 -1.21164 3.58697 
yplus prom: 3.2571 
forces: 766322.698495 3.414309 -95772.128836 
Drag coefficient: 213.856800 
torque (ref. CG): -4.780033 (roll) 488641.791995 (pitch) -20.827285 (yaw) 
----------------------------------------------------- 
step 3, time 0.002400, maxvel 30.000000, total vol 183257, vol(u>maxvel) 7.82527, cell count 1688203
bounding box (containing cells with vel>maxvel): xmin -12.2897 -1.84627 -0.489173, xmax 0.213465 1.84631 4.10545m 
bounding box of vehicle: xmin -12.2 -1.30008 -6.44084e-18, xmax 6.64751e-18 1.30008 3.6m 
gts area: 163.426 
yplus max: 113.397, yplus min: 0.0958801 
position of yplus max: -12.0211 -1.28993 2.00489 
yplus prom: 3.31088 
forces: 19622.548488 -4.006954 -2991.341972 
Drag coefficient: 5.476042 
torque (ref. CG): 5.609735 (roll) 9224.381855 (pitch) 24.442419 (yaw) 
----------------------------------------------------- 
step 4, time 0.003200, maxvel 30.000000, total vol 183257, vol(u>maxvel) 7.82268, cell count 1780373
bounding box (containing cells with vel>maxvel): xmin -12.2896 -1.84621 -0.489173, xmax 0.266239 1.84623 4.10545m 
bounding box of vehicle: xmin -12.2 -1.30008 -6.44084e-18, xmax 6.64751e-18 1.30008 3.6m 
gts area: 163.426 
yplus max: 114.555, yplus min: 0.0387458 
position of yplus max: -12.0304 -1.28988 1.94884 
yplus prom: 3.13869 
forces: 2388.706873 0.866652 -815.461126 
Drag coefficient: 0.666614 
torque (ref. CG): -1.213313 (roll) -1630.123243 (pitch) -5.286578 (yaw) 
----------------------------------------------------- 
step 5, time 0.004000, maxvel 30.000000, total vol 183257, vol(u>maxvel) 7.79585, cell count 1730057
bounding box (containing cells with vel>maxvel): xmin -12.2893 -1.84614 -0.492674, xmax 0.266724 1.84615 4.10543m 
bounding box of vehicle: xmin -12.2 -1.30008 -6.44084e-18, xmax 6.64751e-18 1.30008 3.6m 
gts area: 163.426 
yplus max: 116.478, yplus min: 0.0275599 
position of yplus max: -12.0492 1.28104 1.98621 
yplus prom: 2.92247 
forces: 2423.548973 -0.167609 -883.115868 
Drag coefficient: 0.676337 
torque (ref. CG): 0.234653 (roll) -1994.038233 (pitch) 1.022416 (yaw) 
----------------------------------------------------- 
step 6, time 0.004800, maxvel 30.000000, total vol 183257, vol(u>maxvel) 7.78303, cell count 1668069
bounding box (containing cells with vel>maxvel): xmin -12.2893 -1.84614 -0.492674, xmax 0.266812 1.84615 4.03086m 
bounding box of vehicle: xmin -12.2 -1.30008 -6.44084e-18, xmax 6.64751e-18 1.30008 3.6m 
gts area: 163.426 
yplus max: 118.439, yplus min: 0.0126082 
position of yplus max: -12.0492 1.28104 1.98621 
yplus prom: 2.83914 
forces: 2648.174207 -0.212197 -903.174072 
Drag coefficient: 0.739023 
torque (ref. CG): 0.297076 (roll) -1801.917951 (pitch) 1.294402 (yaw) 
----------------------------------------------------- 
step 7, time 0.005600, maxvel 30.000000, total vol 183257, vol(u>maxvel) 7.75576, cell count 1625221
bounding box (containing cells with vel>maxvel): xmin -12.2892 -1.84607 -0.492674, xmax 0.266853 1.84607 4.03086m 
bounding box of vehicle: xmin -12.2 -1.30008 -6.44084e-18, xmax 6.64751e-18 1.30008 3.6m 
gts area: 163.426 
yplus max: 120.274, yplus min: 0.0447188 
position of yplus max: -12.0492 1.28104 1.98621 
yplus prom: 2.79398 
forces: 2792.159685 -0.180875 -901.268444 
Drag coefficient: 0.779205 
torque (ref. CG): 0.253225 (roll) -1588.713947 (pitch) 1.103338 (yaw) 
----------------------------------------------------- 
step 8, time 0.006400, maxvel 30.000000, total vol 183257, vol(u>maxvel) 7.75869, cell count 1601536
bounding box (containing cells with vel>maxvel): xmin -12.2892 -1.84607 -0.492674, xmax 0.268585 1.84607 4.03086m 
bounding box of vehicle: xmin -12.2 -1.30008 -6.44084e-18, xmax 6.64751e-18 1.30008 3.6m 
gts area: 163.426 
yplus max: 121.943, yplus min: 0.0400076 
position of yplus max: -12.0492 1.28104 1.98621 
yplus prom: 2.77306 
forces: 2906.889048 -0.151978 -896.718543 
Drag coefficient: 0.811222 
torque (ref. CG): 0.212769 (roll) -1400.338447 (pitch) 0.927066 (yaw) 
----------------------------------------------------- 
step 9, time 0.007200, maxvel 30.000000, total vol 183257, vol(u>maxvel) 7.76851, cell count 1606394
bounding box (containing cells with vel>maxvel): xmin -12.2892 -1.846 -0.495368, xmax 0.268755 1.846 4.03086m 
bounding box of vehicle: xmin -12.2 -1.30008 -6.44084e-18, xmax 6.64751e-18 1.30008 3.6m 
gts area: 163.426 
yplus max: 123.426, yplus min: 0.0378723 
position of yplus max: -12.0492 1.28104 1.98621 
yplus prom: 2.76853 
forces: 2996.946308 -0.124799 -893.122734 
Drag coefficient: 0.836354 
torque (ref. CG): 0.174718 (roll) -1252.323845 (pitch) 0.761273 (yaw) 
----------------------------------------------------- 
step 10, time 0.008000, maxvel 30.000000, total vol 183257, vol(u>maxvel) 7.76289, cell count 1614575
bounding box (containing cells with vel>maxvel): xmin -12.2892 -1.846 -0.495368, xmax 0.268822 1.846 4.03086m 
bounding box of vehicle: xmin -12.2 -1.30008 -6.44084e-18, xmax 6.64751e-18 1.30008 3.6m 
gts area: 163.426 
yplus max: 124.711, yplus min: 0.0367575 
position of yplus max: -12.0492 1.28104 1.98621 
yplus prom: 2.77603 
forces: 3069.358302 -0.101886 -890.229101 
Drag coefficient: 0.856562 
torque (ref. CG): 0.142641 (roll) -1133.295893 (pitch) 0.621506 (yaw) 
----------------------------------------------------- 
step 11, time 0.008800, maxvel 30.000000, total vol 183257, vol(u>maxvel) 7.75527, cell count 1622560
bounding box (containing cells with vel>maxvel): xmin -12.2892 -1.84592 -0.495368, xmax 0.268896 1.84592 4.03085m 
bounding box of vehicle: xmin -12.2 -1.30008 -6.44084e-18, xmax 6.64751e-18 1.30008 3.6m 
gts area: 163.426 
yplus max: 125.855, yplus min: 0.0315462 
position of yplus max: -12.0304 -1.28988 1.94884 
yplus prom: 2.79179 
forces: 3126.271244 -0.079777 -888.399455 
Drag coefficient: 0.872445 
torque (ref. CG): 0.111688 (roll) -1042.456935 (pitch) 0.486640 (yaw) 
----------------------------------------------------- 
step 12, time 0.009600, maxvel 30.000000, total vol 183257, vol(u>maxvel) 7.73467, cell count 1623578
bounding box (containing cells with vel>maxvel): xmin -12.2891 -1.84584 -0.497439, xmax 0.268896 1.84583 4.03085m 
bounding box of vehicle: xmin -12.2 -1.30008 -6.44084e-18, xmax 6.64751e-18 1.30008 3.6m 
gts area: 163.426 
yplus max: 126.934, yplus min: 0.0315369 
position of yplus max: -12.0304 -1.28988 1.94884 
yplus prom: 2.81276 
forces: 3167.876528 -0.065310 -887.411824 
Drag coefficient: 0.884056 
torque (ref. CG): 0.091434 (roll) -978.184986 (pitch) 0.398389 (yaw) 
----------------------------------------------------- 
step 13, time 0.010400, maxvel 30.000000, total vol 183257, vol(u>maxvel) 7.73275, cell count 1621050
bounding box (containing cells with vel>maxvel): xmin -12.2891 -1.84584 -0.497439, xmax 0.341967 1.84583 4.03085m 
bounding box of vehicle: xmin -12.2 -1.30008 -6.44084e-18, xmax 6.64751e-18 1.30008 3.6m 
gts area: 163.426 
yplus max: 127.837, yplus min: 0.0215596 
position of yplus max: -12.0304 -1.28988 1.94884 
yplus prom: 2.83616 
forces: 3198.592132 -0.049185 -886.542631 
Drag coefficient: 0.892627 
torque (ref. CG): 0.068860 (roll) -929.881066 (pitch) 0.300031 (yaw) 
----------------------------------------------------- 
step 14, time 0.011200, maxvel 30.000000, total vol 183257, vol(u>maxvel) 7.70625, cell count 1611370
bounding box (containing cells with vel>maxvel): xmin -12.2891 -1.84574 -0.497439, xmax 0.342047 1.84573 4.03084m 
bounding box of vehicle: xmin -12.2 -1.30008 -6.44084e-18, xmax 6.64751e-18 1.30008 3.6m 
gts area: 163.426 
yplus max: 128.574, yplus min: 0.0169366 
position of yplus max: -12.0304 -1.28988 1.94884 
yplus prom: 2.86036 
forces: 3222.696346 -0.037811 -886.139177 
Drag coefficient: 0.899354 
torque (ref. CG): 0.052936 (roll) -893.674095 (pitch) 0.230650 (yaw) 
----------------------------------------------------- 
step 15, time 0.012000, maxvel 30.000000, total vol 183257, vol(u>maxvel) 7.68463, cell count 1602998
bounding box (containing cells with vel>maxvel): xmin -12.2891 -1.84564 -0.497439, xmax 0.342103 1.84564 4.03084m 
bounding box of vehicle: xmin -12.2 -1.30008 -6.44084e-18, xmax 6.64751e-18 1.30008 3.6m 
gts area: 163.426 
yplus max: 129.162, yplus min: 0.0206879 
position of yplus max: -12.0304 -1.28988 1.94884 
yplus prom: 2.88458 
forces: 3238.117534 -0.027585 -885.982038 
Drag coefficient: 0.903658 
torque (ref. CG): 0.038619 (roll) -871.125883 (pitch) 0.168269 (yaw) 
----------------------------------------------------- 
step 16, time 0.012800, maxvel 30.000000, total vol 183257, vol(u>maxvel) 7.68959, cell count 1593354
bounding box (containing cells with vel>maxvel): xmin -12.2891 -1.84553 -0.499033, xmax 0.344006 1.84554 4.03084m 
bounding box of vehicle: xmin -12.2 -1.30008 -6.44084e-18, xmax 6.64751e-18 1.30008 3.6m 
gts area: 163.426 
yplus max: 129.623, yplus min: 0.0246404 
position of yplus max: -12.0304 -1.28988 1.94884 
yplus prom: 2.90805 
forces: 3247.020993 -0.017361 -885.902112 
Drag coefficient: 0.906142 
torque (ref. CG): 0.024305 (roll) -858.173493 (pitch) 0.105900 (yaw) 
----------------------------------------------------- 
step 17, time 0.013600, maxvel 30.000000, total vol 183257, vol(u>maxvel) 7.70409, cell count 1583958
bounding box (containing cells with vel>maxvel): xmin -12.2891 -1.8453 -0.499033, xmax 0.344156 1.84531 4.03083m 
bounding box of vehicle: xmin -12.2 -1.30008 -6.44084e-18, xmax 6.64751e-18 1.30008 3.6m 
gts area: 163.426 
yplus max: 129.976, yplus min: 0.0163205 
position of yplus max: -12.0304 -1.28988 1.94884 
yplus prom: 2.93034 
forces: 3251.004728 -0.011839 -885.577684 
Drag coefficient: 0.907254 
torque (ref. CG): 0.016575 (roll) -850.617251 (pitch) 0.072221 (yaw) 
----------------------------------------------------- 
step 18, time 0.014400, maxvel 30.000000, total vol 183257, vol(u>maxvel) 7.70632, cell count 1579784
bounding box (containing cells with vel>maxvel): xmin -12.2891 -1.77167 -0.499033, xmax 0.344276 1.77179 4.03083m 
bounding box of vehicle: xmin -12.2 -1.30008 -6.44084e-18, xmax 6.64751e-18 1.30008 3.6m 
gts area: 163.426 
yplus max: 130.243, yplus min: 0.00996832 
position of yplus max: -12.0304 -1.28988 1.94884 
yplus prom: 2.95089 
forces: 3250.346359 -0.002125 -885.082848 
Drag coefficient: 0.907070 
torque (ref. CG): 0.002974 (roll) -848.520469 (pitch) 0.012960 (yaw) 
----------------------------------------------------- 
step 19, time 0.015200, maxvel 30.000000, total vol 183257, vol(u>maxvel) 7.70415, cell count 1575921
bounding box (containing cells with vel>maxvel): xmin -12.2891 -1.77167 -0.499033, xmax 0.344312 1.77179 4.03082m 
bounding box of vehicle: xmin -12.2 -1.30008 -6.44084e-18, xmax 6.64751e-18 1.30008 3.6m 
gts area: 163.426 
yplus max: 130.443, yplus min: 0.01473 
position of yplus max: -12.0304 -1.28988 1.94884 
yplus prom: 2.96948 
forces: 3245.891952 -0.000289 -884.651868 
Drag coefficient: 0.905827 
torque (ref. CG): 0.000405 (roll) -852.127661 (pitch) 0.001765 (yaw) 
----------------------------------------------------- 
step 20, time 0.016000, maxvel 30.000000, total vol 183257, vol(u>maxvel) 7.69699, cell count 1572210
bounding box (containing cells with vel>maxvel): xmin -12.2891 -1.77162 -0.500259, xmax 0.344366 1.77171 4.03081m 
bounding box of vehicle: xmin -12.2 -1.30008 -6.44084e-18, xmax 6.64751e-18 1.30008 3.6m 
gts area: 163.426 
yplus max: 130.589, yplus min: 0.0166475 
position of yplus max: -12.0304 -1.28988 1.94884 
yplus prom: 2.98605 
forces: 3238.627707 -0.001585 -884.132670 
Drag coefficient: 0.903800 
torque (ref. CG): 0.002218 (roll) -859.130495 (pitch) 0.009666 (yaw) 
----------------------------------------------------- 
step 21, time 0.016800, maxvel 30.000000, total vol 183257, vol(u>maxvel) 7.68093, cell count 1568548
bounding box (containing cells with vel>maxvel): xmin -12.2891 -1.77162 -0.500259, xmax 0.344655 1.77171 4.03081m 
bounding box of vehicle: xmin -12.2 -1.30008 -6.44084e-18, xmax 6.64751e-18 1.30008 3.6m 
gts area: 163.426 
yplus max: 130.695, yplus min: 0.00498034 
position of yplus max: -12.0304 -1.28988 1.94884 
yplus prom: 3.00062 
forces: 3229.608967 0.020317 -883.657154 
Drag coefficient: 0.901283 
torque (ref. CG): -0.028443 (roll) -868.856088 (pitch) -0.123932 (yaw) 
----------------------------------------------------- 
step 22, time 0.017600, maxvel 30.000000, total vol 183257, vol(u>maxvel) 7.66989, cell count 1564375
bounding box (containing cells with vel>maxvel): xmin -12.2891 -1.77162 -0.500259, xmax 0.344689 1.77171 4.03081m 
bounding box of vehicle: xmin -12.2 -1.30008 -6.44084e-18, xmax 6.64751e-18 1.30008 3.6m 
gts area: 163.426 
yplus max: 130.771, yplus min: 0.0133535 
position of yplus max: -12.0304 -1.28988 1.94884 
yplus prom: 3.0134 
forces: 3219.354646 0.012017 -883.130862 
Drag coefficient: 0.898422 
torque (ref. CG): -0.016824 (roll) -880.001752 (pitch) -0.073303 (yaw) 
----------------------------------------------------- 
step 23, time 0.018400, maxvel 30.000000, total vol 183257, vol(u>maxvel) 7.65679, cell count 1557321
bounding box (containing cells with vel>maxvel): xmin -12.2891 -1.77156 -0.500259, xmax 0.416982 1.77162 4.0308m 
bounding box of vehicle: xmin -12.2 -1.30008 -6.44084e-18, xmax 6.64751e-18 1.30008 3.6m 
gts area: 163.426 
yplus max: 130.823, yplus min: 0.0192847 
position of yplus max: -12.0304 -1.28988 1.94884 
yplus prom: 3.02462 
forces: 3207.914029 0.012119 -882.678585 
Drag coefficient: 0.895229 
torque (ref. CG): -0.016967 (roll) -893.259727 (pitch) -0.073927 (yaw) 
----------------------------------------------------- 
step 24, time 0.019200, maxvel 30.000000, total vol 183257, vol(u>maxvel) 7.67305, cell count 1550628
bounding box (containing cells with vel>maxvel): xmin -12.2891 -1.77156 -0.500259, xmax 0.418714 1.77162 4.03079m 
bounding box of vehicle: xmin -12.2 -1.30008 -6.44084e-18, xmax 6.64751e-18 1.30008 3.6m 
gts area: 163.426 
yplus max: 130.858, yplus min: 0.0218979 
position of yplus max: -12.0304 -1.28988 1.94884 
yplus prom: 3.03449 
forces: 3195.865590 0.013242 -882.274043 
Drag coefficient: 0.891867 
torque (ref. CG): -0.018539 (roll) -907.659835 (pitch) -0.080777 (yaw) 
----------------------------------------------------- 
step 25, time 0.020000, maxvel 30.000000, total vol 183257, vol(u>maxvel) 7.6887, cell count 1543046
bounding box (containing cells with vel>maxvel): xmin -12.2891 -1.77156 -0.501202, xmax 0.418965 1.77162 4.03079m 
bounding box of vehicle: xmin -12.2 -1.30008 -6.44084e-18, xmax 6.64751e-18 1.30008 3.6m 
gts area: 163.426 
yplus max: 130.88, yplus min: 0.00988939 
position of yplus max: -12.0304 -1.28988 1.94884 
yplus prom: 3.0431 
forces: 3183.131653 0.013898 -881.942454 
Drag coefficient: 0.888313 
torque (ref. CG): -0.019457 (roll) -923.464653 (pitch) -0.084775 (yaw) 
----------------------------------------------------- 
step 26, time 0.020800, maxvel 30.000000, total vol 183257, vol(u>maxvel) 7.68425, cell count 1535288
bounding box (containing cells with vel>maxvel): xmin -12.2891 -1.7715 -0.501202, xmax 0.419101 1.77154 4.03079m 
bounding box of vehicle: xmin -12.2 -1.30008 -6.44084e-18, xmax 6.64751e-18 1.30008 3.6m 
gts area: 163.426 
yplus max: 130.891, yplus min: 0.00868969 
position of yplus max: -12.0304 -1.28988 1.94884 
yplus prom: 3.05056 
forces: 3170.098386 0.016580 -881.476942 
Drag coefficient: 0.884676 
torque (ref. CG): -0.023212 (roll) -938.871604 (pitch) -0.101139 (yaw) 
----------------------------------------------------- 
step 27, time 0.021600, maxvel 30.000000, total vol 183257, vol(u>maxvel) 7.66427, cell count 1527225
bounding box (containing cells with vel>maxvel): xmin -12.2891 -1.7715 -0.501202, xmax 0.419182 1.77154 4.03078m 
bounding box of vehicle: xmin -12.2 -1.30008 -6.44084e-18, xmax 6.64751e-18 1.30008 3.6m 
gts area: 163.426 
yplus max: 130.896, yplus min: 0.0153783 
position of yplus max: -12.0304 -1.28988 1.94884 
yplus prom: 3.05696 
forces: 3157.709419 0.025042 -881.124672 
Drag coefficient: 0.881218 
torque (ref. CG): -0.035059 (roll) -954.067313 (pitch) -0.152759 (yaw) 
----------------------------------------------------- 
step 28, time 0.022400, maxvel 30.000000, total vol 183257, vol(u>maxvel) 7.64154, cell count 1518482
bounding box (containing cells with vel>maxvel): xmin -12.2891 -1.77144 -0.501927, xmax 0.419485 1.77146 4.03078m 
bounding box of vehicle: xmin -12.2 -1.30008 -6.44084e-18, xmax 6.64751e-18 1.30008 3.6m 
gts area: 163.426 
yplus max: 130.894, yplus min: 0.0233434 
position of yplus max: -12.0304 -1.28988 1.94884 
yplus prom: 3.06239 
forces: 3145.842150 0.021326 -880.866490 
Drag coefficient: 0.877907 
torque (ref. CG): -0.029856 (roll) -969.106578 (pitch) -0.130089 (yaw) 
----------------------------------------------------- 
step 29, time 0.023200, maxvel 30.000000, total vol 183257, vol(u>maxvel) 7.62015, cell count 1509643
bounding box (containing cells with vel>maxvel): xmin -12.2891 -1.77144 -0.501927, xmax 0.41951 1.77146 4.02917m 
bounding box of vehicle: xmin -12.2 -1.30008 -6.44084e-18, xmax 6.64751e-18 1.30008 3.6m 
gts area: 163.426 
yplus max: 130.888, yplus min: 0.0275047 
position of yplus max: -12.0304 -1.28988 1.94884 
yplus prom: 3.06697 
forces: 3134.125429 0.022301 -880.563960 
Drag coefficient: 0.874637 
torque (ref. CG): -0.031222 (roll) -983.664553 (pitch) -0.136038 (yaw) 
----------------------------------------------------- 
step 30, time 0.024000, maxvel 30.000000, total vol 183257, vol(u>maxvel) 7.59629, cell count 1500803
bounding box (containing cells with vel>maxvel): xmin -12.2891 -1.77138 -0.501927, xmax 0.419517 1.77139 4.02916m 
bounding box of vehicle: xmin -12.2 -1.30008 -6.44084e-18, xmax 6.64751e-18 1.30008 3.6m 
gts area: 163.426 
yplus max: 130.879, yplus min: 0.0142259 
position of yplus max: -12.0304 -1.28988 1.94884 
yplus prom: 3.07087 
forces: 3122.487979 0.024571 -880.216202 
Drag coefficient: 0.871389 
torque (ref. CG): -0.034400 (roll) -997.835663 (pitch) -0.149886 (yaw) 
----------------------------------------------------- 
step 31, time 0.024800, maxvel 30.000000, total vol 183257, vol(u>maxvel) 7.56669, cell count 1491676
bounding box (containing cells with vel>maxvel): xmin -12.2891 -1.77138 -0.502485, xmax 0.419525 1.77139 4.02915m 
bounding box of vehicle: xmin -12.2 -1.30008 -6.44084e-18, xmax 6.64751e-18 1.30008 3.6m 
gts area: 163.426 
yplus max: 130.868, yplus min: 0.0304216 
position of yplus max: -12.0304 -1.28988 1.94884 
yplus prom: 3.0742 
forces: 3111.280528 0.026793 -879.814659 
Drag coefficient: 0.868262 
torque (ref. CG): -0.037511 (roll) -1011.076679 (pitch) -0.163439 (yaw) 
----------------------------------------------------- 
step 32, time 0.025600, maxvel 30.000000, total vol 183257, vol(u>maxvel) 7.53096, cell count 1481895
bounding box (containing cells with vel>maxvel): xmin -12.2891 -1.77132 -0.502485, xmax 0.419531 1.77133 4.02915m 
bounding box of vehicle: xmin -12.2 -1.30008 -6.44084e-18, xmax 6.64751e-18 1.30008 3.6m 
gts area: 163.426 
yplus max: 130.855, yplus min: 0.0359507 
position of yplus max: -12.0304 -1.28988 1.94884 
yplus prom: 3.07717 
forces: 3100.292055 0.022750 -879.390295 
Drag coefficient: 0.865195 
torque (ref. CG): -0.031850 (roll) -1023.871923 (pitch) -0.138775 (yaw) 
----------------------------------------------------- 
step 33, time 0.026400, maxvel 30.000000, total vol 183257, vol(u>maxvel) 7.51667, cell count 1472405
bounding box (containing cells with vel>maxvel): xmin -12.2885 -1.77126 -0.502914, xmax 0.493555 1.77126 4.02915m 
bounding box of vehicle: xmin -12.2 -1.30008 -6.44084e-18, xmax 6.64751e-18 1.30008 3.6m 
gts area: 163.426 
yplus max: 130.84, yplus min: 0.0314684 
position of yplus max: -12.0304 -1.28988 1.94884 
yplus prom: 3.07978 
forces: 3089.533886 0.030208 -878.916749 
Drag coefficient: 0.862193 
torque (ref. CG): -0.042292 (roll) -1036.044729 (pitch) -0.184270 (yaw) 
----------------------------------------------------- 
step 34, time 0.027200, maxvel 30.000000, total vol 183257, vol(u>maxvel) 7.48951, cell count 1464123
bounding box (containing cells with vel>maxvel): xmin -12.2885 -1.77119 -0.502914, xmax 0.493727 1.77118 4.0261m 
bounding box of vehicle: xmin -12.2 -1.30008 -6.44084e-18, xmax 6.64751e-18 1.30008 3.6m 
gts area: 163.426 
yplus max: 130.824, yplus min: 0.0228045 
position of yplus max: -12.0304 -1.28988 1.94884 
yplus prom: 3.08206 
forces: 3078.691639 0.023371 -878.386146 
Drag coefficient: 0.859167 
torque (ref. CG): -0.032720 (roll) -1047.987196 (pitch) -0.142564 (yaw) 
----------------------------------------------------- 
step 35, time 0.028000, maxvel 30.000000, total vol 183257, vol(u>maxvel) 7.46128, cell count 1454969
bounding box (containing cells with vel>maxvel): xmin -12.2885 -1.77111 -0.502914, xmax 0.493829 1.7711 4.0261m 
bounding box of vehicle: xmin -12.2 -1.30008 -6.44084e-18, xmax 6.64751e-18 1.30008 3.6m 
gts area: 163.426 
yplus max: 130.808, yplus min: 0.0176547 
position of yplus max: -12.0304 -1.28988 1.94884 
yplus prom: 3.08405 
forces: 3067.690082 0.026115 -877.826745 
Drag coefficient: 0.856097 
torque (ref. CG): -0.036561 (roll) -1059.977030 (pitch) -0.159300 (yaw) 
----------------------------------------------------- 
step 36, time 0.028800, maxvel 30.000000, total vol 183257, vol(u>maxvel) 7.42495, cell count 1444887
bounding box (containing cells with vel>maxvel): xmin -12.2885 -1.77102 -0.502914, xmax 0.493877 1.77103 4.02609m 
bounding box of vehicle: xmin -12.2 -1.30008 -6.44084e-18, xmax 6.64751e-18 1.30008 3.6m 
gts area: 163.426 
yplus max: 130.792, yplus min: 0.0190518 
position of yplus max: -12.0304 -1.28988 1.94884 
yplus prom: 3.08578 
forces: 3056.630124 0.021824 -877.282675 
Drag coefficient: 0.853010 
torque (ref. CG): -0.030554 (roll) -1072.142144 (pitch) -0.133128 (yaw) 
----------------------------------------------------- 
step 37, time 0.029600, maxvel 30.000000, total vol 183257, vol(u>maxvel) 7.37963, cell count 1436042
bounding box (containing cells with vel>maxvel): xmin -12.2885 -1.77084 -0.502914, xmax 0.493924 1.77086 4.02609m 
bounding box of vehicle: xmin -12.2 -1.30008 -6.44084e-18, xmax 6.64751e-18 1.30008 3.6m 
gts area: 163.426 
yplus max: 130.775, yplus min: 0.0275988 
position of yplus max: -12.0304 -1.28988 1.94884 
yplus prom: 3.08729 
forces: 3045.458233 0.021412 -876.721889 
Drag coefficient: 0.849893 
torque (ref. CG): -0.029977 (roll) -1084.361996 (pitch) -0.130613 (yaw) 
----------------------------------------------------- 
step 38, time 0.030400, maxvel 30.000000, total vol 183257, vol(u>maxvel) 7.32056, cell count 1424086
bounding box (containing cells with vel>maxvel): xmin -12.2622 -1.77024 -0.503245, xmax 0.493966 1.77043 4.02424m 
bounding box of vehicle: xmin -12.2 -1.30008 -6.44084e-18, xmax 6.64751e-18 1.30008 3.6m 
gts area: 163.426 
yplus max: 130.758, yplus min: 0.0265338 
position of yplus max: -12.0304 -1.28988 1.94884 
yplus prom: 3.08859 
forces: 3034.105145 0.021291 -876.165180 
Drag coefficient: 0.846724 
torque (ref. CG): -0.029808 (roll) -1096.860393 (pitch) -0.129876 (yaw) 
----------------------------------------------------- 
step 39, time 0.031200, maxvel 30.000000, total vol 183257, vol(u>maxvel) 7.28495, cell count 1412707
bounding box (containing cells with vel>maxvel): xmin -12.2622 -1.77024 -0.503245, xmax 0.494264 1.77043 3.95614m 
bounding box of vehicle: xmin -12.2 -1.30008 -6.44084e-18, xmax 6.64751e-18 1.30008 3.6m 
gts area: 163.426 
yplus max: 130.742, yplus min: 0.0220401 
position of yplus max: -12.0304 -1.28988 1.94884 
yplus prom: 3.08969 
forces: 3022.659355 0.018089 -875.560848 
Drag coefficient: 0.843530 
torque (ref. CG): -0.025325 (roll) -1109.198072 (pitch) -0.110345 (yaw) 
----------------------------------------------------- 
step 40, time 0.032000, maxvel 30.000000, total vol 183257, vol(u>maxvel) 7.2569, cell count 1402014
bounding box (containing cells with vel>maxvel): xmin -12.2622 -1.77011 -0.503245, xmax 0.494347 1.77027 3.95614m 
bounding box of vehicle: xmin -12.2 -1.30008 -6.44084e-18, xmax 6.64751e-18 1.30008 3.6m 
gts area: 163.426 
yplus max: 130.726, yplus min: 0.0294054 
position of yplus max: -12.0304 -1.28988 1.94884 
yplus prom: 3.09061 
forces: 3011.032634 0.016216 -875.003163 
Drag coefficient: 0.840285 
torque (ref. CG): -0.022703 (roll) -1122.073609 (pitch) -0.098919 (yaw) 
----------------------------------------------------- 
step 41, time 0.032800, maxvel 30.000000, total vol 183257, vol(u>maxvel) 7.23364, cell count 1391841
bounding box (containing cells with vel>maxvel): xmin -12.2622 -1.77011 -0.503245, xmax 0.494353 1.77027 3.95614m 
bounding box of vehicle: xmin -12.2 -1.30008 -6.44084e-18, xmax 6.64751e-18 1.30008 3.6m 
gts area: 163.426 
yplus max: 130.71, yplus min: 0.0274044 
position of yplus max: -12.0304 -1.28988 1.94884 
yplus prom: 3.09136 
forces: 2999.323770 0.016428 -874.456581 
Drag coefficient: 0.837018 
torque (ref. CG): -0.022999 (roll) -1135.131863 (pitch) -0.100208 (yaw) 
----------------------------------------------------- 
step 42, time 0.033600, maxvel 30.000000, total vol 183257, vol(u>maxvel) 7.2021, cell count 1380208
bounding box (containing cells with vel>maxvel): xmin -12.2621 -1.77011 -0.503245, xmax 0.568135 1.77027 3.95609m 
bounding box of vehicle: xmin -12.2 -1.30008 -6.44084e-18, xmax 6.64751e-18 1.30008 3.6m 
gts area: 163.426 
yplus max: 130.694, yplus min: 0.0283483 
position of yplus max: -12.0304 -1.28988 1.94884 
yplus prom: 3.09195 
forces: 2987.471159 0.014767 -873.970684 
Drag coefficient: 0.833710 
torque (ref. CG): -0.020674 (roll) -1148.761551 (pitch) -0.090080 (yaw) 
----------------------------------------------------- 
step 43, time 0.034400, maxvel 30.000000, total vol 183257, vol(u>maxvel) 7.17376, cell count 1367923
bounding box (containing cells with vel>maxvel): xmin -12.2621 -1.77011 -0.503245, xmax 0.568344 1.77027 3.95381m 
bounding box of vehicle: xmin -12.2 -1.30008 -6.44084e-18, xmax 6.64751e-18 1.30008 3.6m 
gts area: 163.426 
yplus max: 130.679, yplus min: 0.0282871 
position of yplus max: -12.0304 -1.28988 1.94884 
yplus prom: 3.09238 
forces: 2975.536382 0.013304 -873.422298 
Drag coefficient: 0.830380 
torque (ref. CG): -0.018626 (roll) -1162.125084 (pitch) -0.081157 (yaw) 
----------------------------------------------------- 
step 44, time 0.035200, maxvel 30.000000, total vol 183257, vol(u>maxvel) 7.15477, cell count 1355472
bounding box (containing cells with vel>maxvel): xmin -12.2621 -1.77011 -0.503245, xmax 0.568472 1.77027 3.95381m 
bounding box of vehicle: xmin -12.2 -1.30008 -6.44084e-18, xmax 6.64751e-18 1.30008 3.6m 
gts area: 163.426 
yplus max: 130.664, yplus min: 0.0298475 
position of yplus max: -12.0304 -1.28988 1.94884 
yplus prom: 3.09269 
forces: 2963.475979 0.009610 -872.997003 
Drag coefficient: 0.827014 
torque (ref. CG): -0.013454 (roll) -1176.415346 (pitch) -0.058622 (yaw) 
----------------------------------------------------- 
step 45, time 0.036000, maxvel 30.000000, total vol 183257, vol(u>maxvel) 7.10601, cell count 1341809
bounding box (containing cells with vel>maxvel): xmin -12.2621 -1.76996 -0.503245, xmax 0.568585 1.77009 3.95381m 
bounding box of vehicle: xmin -12.2 -1.30008 -6.44084e-18, xmax 6.64751e-18 1.30008 3.6m 
gts area: 163.426 
yplus max: 130.65, yplus min: 0.0290219 
position of yplus max: -12.0304 -1.28988 1.94884 
yplus prom: 3.09289 
forces: 2951.787611 0.012546 -872.572353 
Drag coefficient: 0.823752 
torque (ref. CG): -0.017564 (roll) -1190.188695 (pitch) -0.076529 (yaw) 
----------------------------------------------------- 
step 46, time 0.036800, maxvel 30.000000, total vol 183257, vol(u>maxvel) 7.07659, cell count 1326488
bounding box (containing cells with vel>maxvel): xmin -12.2621 -1.76996 -0.503245, xmax 0.568639 1.77009 3.95381m 
bounding box of vehicle: xmin -12.2 -1.30008 -6.44084e-18, xmax 6.64751e-18 1.30008 3.6m 
gts area: 163.426 
yplus max: 130.636, yplus min: 0.0288016 
position of yplus max: -12.0304 -1.28988 1.94884 
yplus prom: 3.09301 
forces: 2940.290424 0.010880 -872.114451 
Drag coefficient: 0.820543 
torque (ref. CG): -0.015231 (roll) -1203.491557 (pitch) -0.066365 (yaw) 
----------------------------------------------------- 
step 47, time 0.037600, maxvel 30.000000, total vol 183257, vol(u>maxvel) 7.04655, cell count 1311340
bounding box (containing cells with vel>maxvel): xmin -12.2621 -1.76996 -0.503245, xmax 0.568639 1.77009 3.95381m 
bounding box of vehicle: xmin -12.2 -1.30008 -6.44084e-18, xmax 6.64751e-18 1.30008 3.6m 
gts area: 163.426 
yplus max: 130.623, yplus min: 0.0282763 
position of yplus max: -12.0304 -1.28988 1.94884 
yplus prom: 3.09304 
forces: 2928.794568 0.008514 -871.762581 
Drag coefficient: 0.817335 
torque (ref. CG): -0.011919 (roll) -1217.439349 (pitch) -0.051935 (yaw) 
----------------------------------------------------- 
step 48, time 0.038400, maxvel 30.000000, total vol 183257, vol(u>maxvel) 7.01762, cell count 1299057
bounding box (containing cells with vel>maxvel): xmin -12.2621 -1.76996 -0.503245, xmax 0.568689 1.77009 3.95381m 
bounding box of vehicle: xmin -12.2 -1.30008 -6.44084e-18, xmax 6.64751e-18 1.30008 3.6m 
gts area: 163.426 
yplus max: 130.61, yplus min: 0.0206369 
position of yplus max: -12.0304 -1.28988 1.94884 
yplus prom: 3.09297 
forces: 2917.643051 0.006838 -871.398872 
Drag coefficient: 0.814223 
torque (ref. CG): -0.009573 (roll) -1230.832849 (pitch) -0.041709 (yaw) 
----------------------------------------------------- 
step 49, time 0.039200, maxvel 30.000000, total vol 183257, vol(u>maxvel) 6.98328, cell count 1287588
bounding box (containing cells with vel>maxvel): xmin -12.2621 -1.76979 -0.503245, xmax 0.568736 1.7699 3.95381m 
bounding box of vehicle: xmin -12.2 -1.30008 -6.44084e-18, xmax 6.64751e-18 1.30008 3.6m 
gts area: 163.426 
yplus max: 130.598, yplus min: 0.0272209 
position of yplus max: -12.0304 -1.28988 1.94884 
yplus prom: 3.0928 
forces: 2906.652523 0.007895 -871.085948 
Drag coefficient: 0.811156 
torque (ref. CG): -0.011053 (roll) -1244.310749 (pitch) -0.048158 (yaw) 
----------------------------------------------------- 
step 50, time 0.040000, maxvel 30.000000, total vol 183257, vol(u>maxvel) 6.9248, cell count 1275930
bounding box (containing cells with vel>maxvel): xmin -12.2621 -1.76561 -0.503245, xmax 0.568736 1.76561 3.95381m 
bounding box of vehicle: xmin -12.2 -1.30008 -6.44084e-18, xmax 6.64751e-18 1.30008 3.6m 
gts area: 163.426 
yplus max: 130.586, yplus min: 0.0266862 
position of yplus max: -12.0304 -1.28988 1.94884 
yplus prom: 3.09254 
forces: 2895.578776 0.005221 -870.688692 
Drag coefficient: 0.808066 
torque (ref. CG): -0.007310 (roll) -1257.390735 (pitch) -0.031849 (yaw) 
----------------------------------------------------- 
step 51, time 0.040800, maxvel 30.000000, total vol 183257, vol(u>maxvel) 6.89159, cell count 1264610
bounding box (containing cells with vel>maxvel): xmin -12.2621 -1.6962 -0.503245, xmax 0.568736 1.69623 3.95381m 
bounding box of vehicle: xmin -12.2 -1.30008 -6.44084e-18, xmax 6.64751e-18 1.30008 3.6m 
gts area: 163.426 
yplus max: 130.575, yplus min: 0.0261629 
position of yplus max: -12.0304 -1.28988 1.94884 
yplus prom: 3.09218 
forces: 2884.582833 0.003302 -870.350094 
Drag coefficient: 0.804997 
torque (ref. CG): -0.004623 (roll) -1270.719608 (pitch) -0.020142 (yaw) 
----------------------------------------------------- 
step 52, time 0.041600, maxvel 30.000000, total vol 183257, vol(u>maxvel) 6.86371, cell count 1252935
bounding box (containing cells with vel>maxvel): xmin -12.2621 -1.6962 -0.503245, xmax 0.642828 1.69623 3.95381m 
bounding box of vehicle: xmin -12.2 -1.30008 -6.44084e-18, xmax 6.64751e-18 1.30008 3.6m 
gts area: 163.426 
yplus max: 130.564, yplus min: 0.0256401 
position of yplus max: -12.0304 -1.28988 1.94884 
yplus prom: 3.09175 
forces: 2873.721672 0.003656 -869.994030 
Drag coefficient: 0.801966 
torque (ref. CG): -0.005118 (roll) -1283.753239 (pitch) -0.022301 (yaw) 
----------------------------------------------------- 
step 53, time 0.042400, maxvel 30.000000, total vol 183257, vol(u>maxvel) 6.84858, cell count 1241949
bounding box (containing cells with vel>maxvel): xmin -12.2621 -1.6962 -0.503245, xmax 0.643065 1.69623 3.95381m 
bounding box of vehicle: xmin -12.2 -1.30008 -6.44084e-18, xmax 6.64751e-18 1.30008 3.6m 
gts area: 163.426 
yplus max: 130.554, yplus min: 0.0251159 
position of yplus max: -12.0304 -1.28988 1.94884 
yplus prom: 3.09127 
forces: 2862.881180 -0.000773 -869.610152 
Drag coefficient: 0.798941 
torque (ref. CG): 0.001082 (roll) -1296.588278 (pitch) 0.004713 (yaw) 
----------------------------------------------------- 
step 54, time 0.043200, maxvel 30.000000, total vol 183257, vol(u>maxvel) 6.82931, cell count 1230531
bounding box (containing cells with vel>maxvel): xmin -12.2621 -1.6962 -0.503245, xmax 0.643137 1.69623 3.95381m 
bounding box of vehicle: xmin -12.2 -1.30008 -6.44084e-18, xmax 6.64751e-18 1.30008 3.6m 
gts area: 163.426 
yplus max: 130.544, yplus min: 0.0246126 
position of yplus max: -12.0304 -1.28988 1.94884 
yplus prom: 3.09073 
forces: 2852.321668 0.000370 -869.225644 
Drag coefficient: 0.795994 
torque (ref. CG): -0.000518 (roll) -1309.026093 (pitch) -0.002258 (yaw) 
----------------------------------------------------- 
step 55, time 0.044000, maxvel 30.000000, total vol 183257, vol(u>maxvel) 6.80396, cell count 1218832
bounding box (containing cells with vel>maxvel): xmin -12.2621 -1.6962 -0.503245, xmax 0.643204 1.69623 3.9538m 
bounding box of vehicle: xmin -12.2 -1.30008 -6.44084e-18, xmax 6.64751e-18 1.30008 3.6m 
gts area: 163.426 
yplus max: 130.534, yplus min: 0.0241159 
position of yplus max: -12.0304 -1.28988 1.94884 
yplus prom: 3.09014 
forces: 2842.047568 -0.000327 -868.789614 
Drag coefficient: 0.793127 
torque (ref. CG): 0.000458 (roll) -1320.750048 (pitch) 0.001994 (yaw) 
----------------------------------------------------- 
step 56, time 0.044800, maxvel 30.000000, total vol 183257, vol(u>maxvel) 6.75906, cell count 1207473
bounding box (containing cells with vel>maxvel): xmin -12.2621 -1.6962 -0.503245, xmax 0.643269 1.69623 3.9538m 
bounding box of vehicle: xmin -12.2 -1.30008 -6.44084e-18, xmax 6.64751e-18 1.30008 3.6m 
gts area: 163.426 
yplus max: 130.525, yplus min: 0.0236328 
position of yplus max: -12.0304 -1.28988 1.94884 
yplus prom: 3.0895 
forces: 2831.870384 -0.000912 -868.319023 
Drag coefficient: 0.790287 
torque (ref. CG): 0.001276 (roll) -1332.127502 (pitch) 0.005561 (yaw) 
----------------------------------------------------- 
step 57, time 0.045600, maxvel 30.000000, total vol 183257, vol(u>maxvel) 6.72008, cell count 1197140
bounding box (containing cells with vel>maxvel): xmin -12.2621 -1.6962 -0.503245, xmax 0.643331 1.69623 3.9506m 
bounding box of vehicle: xmin -12.2 -1.30008 -6.44084e-18, xmax 6.64751e-18 1.30008 3.6m 
gts area: 163.426 
yplus max: 130.516, yplus min: 0.0231742 
position of yplus max: -12.0304 -1.28988 1.94884 
yplus prom: 3.08883 
forces: 2821.762552 -0.001785 -867.823219 
Drag coefficient: 0.787466 
torque (ref. CG): 0.002499 (roll) -1343.254064 (pitch) 0.010887 (yaw) 
----------------------------------------------------- 
step 58, time 0.046400, maxvel 30.000000, total vol 183257, vol(u>maxvel) 6.68657, cell count 1186144
bounding box (containing cells with vel>maxvel): xmin -12.2621 -1.6962 -0.503245, xmax 0.643331 1.69623 3.9506m 
bounding box of vehicle: xmin -12.2 -1.30008 -6.44084e-18, xmax 6.64751e-18 1.30008 3.6m 
gts area: 163.426 
yplus max: 130.508, yplus min: 0.0187632 
position of yplus max: -12.0304 -1.28988 1.94884 
yplus prom: 3.08813 
forces: 2811.840071 -0.001579 -867.304387 
Drag coefficient: 0.784697 
torque (ref. CG): 0.002211 (roll) -1353.980663 (pitch) 0.009632 (yaw) 
----------------------------------------------------- 
step 59, time 0.047200, maxvel 30.000000, total vol 183257, vol(u>maxvel) 6.65597, cell count 1173532
bounding box (containing cells with vel>maxvel): xmin -12.2621 -1.6962 -0.503245, xmax 0.643389 1.69623 3.9506m 
bounding box of vehicle: xmin -12.2 -1.30008 -6.44084e-18, xmax 6.64751e-18 1.30008 3.6m 
gts area: 163.426 
yplus max: 130.5, yplus min: 0.0223381 
position of yplus max: -12.0304 -1.28988 1.94884 
yplus prom: 3.08737 
forces: 2802.041921 -0.002909 -866.745868 
Drag coefficient: 0.781963 
torque (ref. CG): 0.004072 (roll) -1364.291105 (pitch) 0.017742 (yaw) 
----------------------------------------------------- 
step 60, time 0.048000, maxvel 30.000000, total vol 183257, vol(u>maxvel) 6.62355, cell count 1159640
bounding box (containing cells with vel>maxvel): xmin -12.2621 -1.6962 -0.503245, xmax 0.643389 1.69623 3.9506m 
bounding box of vehicle: xmin -12.2 -1.30008 -6.44084e-18, xmax 6.64751e-18 1.30008 3.6m 
gts area: 163.426 
yplus max: 130.492, yplus min: 0.0219809 
position of yplus max: -12.0304 -1.28988 1.94884 
yplus prom: 3.08657 
forces: 2792.434955 -0.002229 -866.178587 
Drag coefficient: 0.779282 
torque (ref. CG): 0.003121 (roll) -1374.280442 (pitch) 0.013600 (yaw) 
----------------------------------------------------- 
step 61, time 0.048800, maxvel 30.000000, total vol 183257, vol(u>maxvel) 6.5972, cell count 1145676
bounding box (containing cells with vel>maxvel): xmin -12.2621 -1.6962 -0.503245, xmax 0.643444 1.69623 3.9506m 
bounding box of vehicle: xmin -12.2 -1.30008 -6.44084e-18, xmax 6.64751e-18 1.30008 3.6m 
gts area: 163.426 
yplus max: 130.485, yplus min: 0.0216712 
position of yplus max: -12.0304 -1.28988 1.94884 
yplus prom: 3.08573 
forces: 2782.902190 -0.003412 -865.604782 
Drag coefficient: 0.776621 
torque (ref. CG): 0.004777 (roll) -1384.126105 (pitch) 0.020812 (yaw) 
----------------------------------------------------- 
step 62, time 0.049600, maxvel 30.000000, total vol 183257, vol(u>maxvel) 6.55759, cell count 1132740
bounding box (containing cells with vel>maxvel): xmin -12.2621 -1.6962 -0.503245, xmax 0.717337 1.69623 3.9506m 
bounding box of vehicle: xmin -12.2 -1.30008 -6.44084e-18, xmax 6.64751e-18 1.30008 3.6m 
gts area: 163.426 
yplus max: 130.477, yplus min: 0.0214158 
position of yplus max: -12.0304 -1.28988 1.94884 
yplus prom: 3.08486 
forces: 2773.495723 -0.004181 -865.036532 
Drag coefficient: 0.773996 
torque (ref. CG): 0.005853 (roll) -1393.828835 (pitch) 0.025502 (yaw) 
----------------------------------------------------- 
step 63, time 0.050400, maxvel 30.000000, total vol 183257, vol(u>maxvel) 6.5253, cell count 1120038
bounding box (containing cells with vel>maxvel): xmin -12.2621 -1.6962 -0.503245, xmax 0.717628 1.69623 3.9506m 
bounding box of vehicle: xmin -12.2 -1.30008 -6.44084e-18, xmax 6.64751e-18 1.30008 3.6m 
gts area: 163.426 
yplus max: 130.47, yplus min: 0.0212232 
position of yplus max: -12.0304 -1.28988 1.94884 
yplus prom: 3.08396 
forces: 2764.207505 -0.004468 -864.464496 
Drag coefficient: 0.771404 
torque (ref. CG): 0.006255 (roll) -1403.342918 (pitch) 0.027252 (yaw) 
----------------------------------------------------- 
step 64, time 0.051200, maxvel 30.000000, total vol 183257, vol(u>maxvel) 6.49684, cell count 1107129
bounding box (containing cells with vel>maxvel): xmin -12.2621 -1.6962 -0.503245, xmax 0.717712 1.69623 3.9506m 
bounding box of vehicle: xmin -12.2 -1.30008 -6.44084e-18, xmax 6.64751e-18 1.30008 3.6m 
gts area: 163.426 
yplus max: 130.464, yplus min: 0.0210979 
position of yplus max: -12.0304 -1.28988 1.94884 
yplus prom: 3.08303 
forces: 2755.040783 -0.005685 -863.848218 
Drag coefficient: 0.768846 
torque (ref. CG): 0.007959 (roll) -1412.417036 (pitch) 0.034681 (yaw) 
----------------------------------------------------- 
step 65, time 0.052000, maxvel 30.000000, total vol 183257, vol(u>maxvel) 6.45295, cell count 1094847
bounding box (containing cells with vel>maxvel): xmin -12.2621 -1.6962 -0.503245, xmax 0.717789 1.69623 3.9506m 
bounding box of vehicle: xmin -12.2 -1.30008 -6.44084e-18, xmax 6.64751e-18 1.30008 3.6m 
gts area: 163.426 
yplus max: 130.457, yplus min: 0.0210505 
position of yplus max: -12.0304 -1.28988 1.94884 
yplus prom: 3.08208 
forces: 2746.044561 -0.006470 -863.237409 
Drag coefficient: 0.766336 
torque (ref. CG): 0.009059 (roll) -1421.285812 (pitch) 0.039470 (yaw) 
----------------------------------------------------- 
step 66, time 0.052800, maxvel 30.000000, total vol 183257, vol(u>maxvel) 6.40735, cell count 1082855
bounding box (containing cells with vel>maxvel): xmin -12.2621 -1.6962 -0.503245, xmax 0.717977 1.69623 3.9506m 
bounding box of vehicle: xmin -12.2 -1.30008 -6.44084e-18, xmax 6.64751e-18 1.30008 3.6m 
gts area: 163.426 
yplus max: 130.451, yplus min: 0.0210785 
position of yplus max: -12.0304 -1.28988 1.94884 
yplus prom: 3.08111 
forces: 2737.152007 -0.007154 -862.596813 
Drag coefficient: 0.763854 
torque (ref. CG): 0.010016 (roll) -1429.827751 (pitch) 0.043641 (yaw) 
----------------------------------------------------- 
step 67, time 0.053600, maxvel 30.000000, total vol 183257, vol(u>maxvel) 6.3642, cell count 1070650
bounding box (containing cells with vel>maxvel): xmin -12.2621 -1.6962 -0.503245, xmax 0.718046 1.69623 3.95059m 
bounding box of vehicle: xmin -12.2 -1.30008 -6.44084e-18, xmax 6.64751e-18 1.30008 3.6m 
gts area: 163.426 
yplus max: 130.445, yplus min: 0.0211809 
position of yplus max: -12.0304 -1.28988 1.94884 
yplus prom: 3.08013 
forces: 2728.357317 -0.007667 -861.966438 
Drag coefficient: 0.761400 
torque (ref. CG): 0.010734 (roll) -1438.295029 (pitch) 0.046768 (yaw) 
----------------------------------------------------- 
step 68, time 0.054400, maxvel 30.000000, total vol 183257, vol(u>maxvel) 6.32474, cell count 1058555
bounding box (containing cells with vel>maxvel): xmin -12.2621 -1.6962 -0.503245, xmax 0.718046 1.69623 3.95059m 
bounding box of vehicle: xmin -12.2 -1.30008 -6.44084e-18, xmax 6.64751e-18 1.30008 3.6m 
gts area: 163.426 
yplus max: 130.44, yplus min: 0.0213444 
position of yplus max: -12.0304 -1.28988 1.94884 
yplus prom: 3.07913 
forces: 2719.653751 -0.009500 -861.289786 
Drag coefficient: 0.758971 
torque (ref. CG): 0.013301 (roll) -1446.352442 (pitch) 0.057953 (yaw) 
----------------------------------------------------- 
step 69, time 0.055200, maxvel 30.000000, total vol 183257, vol(u>maxvel) 6.29067, cell count 1047253
bounding box (containing cells with vel>maxvel): xmin -12.2621 -1.6962 -0.503245, xmax 0.718046 1.69623 3.95059m 
bounding box of vehicle: xmin -12.2 -1.30008 -6.44084e-18, xmax 6.64751e-18 1.30008 3.6m 
gts area: 163.426 
yplus max: 130.434, yplus min: 0.0215555 
position of yplus max: -12.0304 -1.28988 1.94884 
yplus prom: 3.07811 
forces: 2711.099243 -0.008958 -860.666232 
Drag coefficient: 0.756583 
torque (ref. CG): 0.012541 (roll) -1454.525074 (pitch) 0.054641 (yaw) 
----------------------------------------------------- 
step 70, time 0.056000, maxvel 30.000000, total vol 183257, vol(u>maxvel) 6.24602, cell count 1033864
bounding box (containing cells with vel>maxvel): xmin -12.2621 -1.6962 -0.503245, xmax 0.718075 1.69623 3.94947m 
bounding box of vehicle: xmin -12.2 -1.30008 -6.44084e-18, xmax 6.64751e-18 1.30008 3.6m 
gts area: 163.426 
yplus max: 130.429, yplus min: 0.0218245 
position of yplus max: -12.0304 -1.28988 1.94884 
yplus prom: 3.07709 
forces: 2702.672504 -0.010583 -860.010934 
Drag coefficient: 0.754232 
torque (ref. CG): 0.014816 (roll) -1462.325191 (pitch) 0.064556 (yaw) 
----------------------------------------------------- 
step 71, time 0.056800, maxvel 30.000000, total vol 183257, vol(u>maxvel) 6.21706, cell count 1021940
bounding box (containing cells with vel>maxvel): xmin -12.2621 -1.6962 -0.503245, xmax 0.718075 1.69623 3.9492m 
bounding box of vehicle: xmin -12.2 -1.30008 -6.44084e-18, xmax 6.64751e-18 1.30008 3.6m 
gts area: 163.426 
yplus max: 130.424, yplus min: 0.0221531 
position of yplus max: -12.0304 -1.28988 1.94884 
yplus prom: 3.07605 
forces: 2694.379029 -0.011516 -859.370490 
Drag coefficient: 0.751917 
torque (ref. CG): 0.016122 (roll) -1470.029347 (pitch) 0.070247 (yaw) 
----------------------------------------------------- 
step 72, time 0.057600, maxvel 30.000000, total vol 183257, vol(u>maxvel) 6.17776, cell count 1010709
bounding box (containing cells with vel>maxvel): xmin -12.2621 -1.6962 -0.503245, xmax 0.718075 1.69623 3.88171m 
bounding box of vehicle: xmin -12.2 -1.30008 -6.44084e-18, xmax 6.64751e-18 1.30008 3.6m 
gts area: 163.426 
yplus max: 130.419, yplus min: 0.022534 
position of yplus max: -12.0304 -1.28988 1.94884 
yplus prom: 3.07501 
forces: 2686.202027 -0.012313 -858.736734 
Drag coefficient: 0.749635 
torque (ref. CG): 0.017238 (roll) -1477.611241 (pitch) 0.075108 (yaw) 
----------------------------------------------------- 
step 73, time 0.058400, maxvel 30.000000, total vol 183257, vol(u>maxvel) 6.13523, cell count 1001324
bounding box (containing cells with vel>maxvel): xmin -12.2621 -1.6962 -0.503245, xmax 0.718137 1.69623 3.88171m 
bounding box of vehicle: xmin -12.2 -1.30008 -6.44084e-18, xmax 6.64751e-18 1.30008 3.6m 
gts area: 163.426 
yplus max: 130.414, yplus min: 0.022958 
position of yplus max: -12.0304 -1.28988 1.94884 
yplus prom: 3.07394 
forces: 2678.113298 -0.013702 -858.100470 
Drag coefficient: 0.747378 
torque (ref. CG): 0.019183 (roll) -1485.054251 (pitch) 0.083584 (yaw) 
----------------------------------------------------- 
step 74, time 0.059200, maxvel 30.000000, total vol 183257, vol(u>maxvel) 6.10981, cell count 993077
bounding box (containing cells with vel>maxvel): xmin -12.2621 -1.6962 -0.503245, xmax 0.79276 1.69623 3.88171m 
bounding box of vehicle: xmin -12.2 -1.30008 -6.44084e-18, xmax 6.64751e-18 1.30008 3.6m 
gts area: 163.426 
yplus max: 130.409, yplus min: 0.0234188 
position of yplus max: -12.0304 -1.28988 1.94884 
yplus prom: 3.07287 
forces: 2670.130387 -0.014980 -857.467327 
Drag coefficient: 0.745150 
torque (ref. CG): 0.020971 (roll) -1492.368154 (pitch) 0.091375 (yaw) 
----------------------------------------------------- 
step 75, time 0.060000, maxvel 30.000000, total vol 183257, vol(u>maxvel) 6.07452, cell count 985757
bounding box (containing cells with vel>maxvel): xmin -12.2621 -1.6962 -0.503245, xmax 0.792995 1.69623 3.88171m 
bounding box of vehicle: xmin -12.2 -1.30008 -6.44084e-18, xmax 6.64751e-18 1.30008 3.6m 
gts area: 163.426 
yplus max: 130.405, yplus min: 0.02391 
position of yplus max: -12.0304 -1.28988 1.94884 
yplus prom: 3.07178 
forces: 2662.240642 -0.016304 -856.826013 
Drag coefficient: 0.742948 
torque (ref. CG): 0.022826 (roll) -1499.501782 (pitch) 0.099455 (yaw) 
----------------------------------------------------- 
step 76, time 0.060800, maxvel 30.000000, total vol 183257, vol(u>maxvel) 6.04497, cell count 979766
bounding box (containing cells with vel>maxvel): xmin -12.2621 -1.6962 -0.503245, xmax 0.793093 1.69623 3.88171m 
bounding box of vehicle: xmin -12.2 -1.30008 -6.44084e-18, xmax 6.64751e-18 1.30008 3.6m 
gts area: 163.426 
yplus max: 130.4, yplus min: 0.0244257 
position of yplus max: -12.0304 -1.28988 1.94884 
yplus prom: 3.07067 
forces: 2654.460259 -0.017788 -856.181424 
Drag coefficient: 0.740777 
torque (ref. CG): 0.024903 (roll) -1506.462321 (pitch) 0.108505 (yaw) 
----------------------------------------------------- 
step 77, time 0.061600, maxvel 30.000000, total vol 183257, vol(u>maxvel) 6.01317, cell count 974132
bounding box (containing cells with vel>maxvel): xmin -12.2621 -1.6962 -0.503245, xmax 0.793186 1.69623 3.88171m 
bounding box of vehicle: xmin -12.2 -1.30008 -6.44084e-18, xmax 6.64751e-18 1.30008 3.6m 
gts area: 163.426 
yplus max: 130.396, yplus min: 0.0249594 
position of yplus max: -12.0304 -1.28988 1.94884 
yplus prom: 3.06956 
forces: 2646.790230 -0.019055 -855.537996 
Drag coefficient: 0.738637 
torque (ref. CG): 0.026678 (roll) -1513.275453 (pitch) 0.116239 (yaw) 
----------------------------------------------------- 
step 78, time 0.062400, maxvel 30.000000, total vol 183257, vol(u>maxvel) 5.9832, cell count 969027
bounding box (containing cells with vel>maxvel): xmin -12.2621 -1.6962 -0.503245, xmax 0.793186 1.69623 3.88171m 
bounding box of vehicle: xmin -12.2 -1.30008 -6.44084e-18, xmax 6.64751e-18 1.30008 3.6m 
gts area: 163.426 
yplus max: 130.392, yplus min: 0.0255083 
position of yplus max: -12.0304 -1.28988 1.94884 
yplus prom: 3.06843 
forces: 2639.188867 -0.020158 -854.889173 
Drag coefficient: 0.736515 
torque (ref. CG): 0.028221 (roll) -1519.959543 (pitch) 0.122963 (yaw) 
----------------------------------------------------- 
step 79, time 0.063200, maxvel 30.000000, total vol 183257, vol(u>maxvel) 5.93885, cell count 963935
bounding box (containing cells with vel>maxvel): xmin -12.2621 -1.69614 -0.503245, xmax 0.793494 1.69618 3.8817m 
bounding box of vehicle: xmin -12.2 -1.30008 -6.44084e-18, xmax 6.64751e-18 1.30008 3.6m 
gts area: 163.426 
yplus max: 130.388, yplus min: 0.0260686 
position of yplus max: -12.0304 -1.28988 1.94884 
yplus prom: 3.06729 
forces: 2631.661902 -0.021799 -854.232839 
Drag coefficient: 0.734415 
torque (ref. CG): 0.030519 (roll) -1526.493654 (pitch) 0.132976 (yaw) 
----------------------------------------------------- 
step 80, time 0.064000, maxvel 30.000000, total vol 183257, vol(u>maxvel) 5.90992, cell count 959227
bounding box (containing cells with vel>maxvel): xmin -12.2621 -1.69614 -0.503245, xmax 0.793494 1.69618 3.8817m 
bounding box of vehicle: xmin -12.2 -1.30008 -6.44084e-18, xmax 6.64751e-18 1.30008 3.6m 
gts area: 163.426 
yplus max: 130.384, yplus min: 0.0266391 
position of yplus max: -12.0304 -1.28988 1.94884 
yplus prom: 3.06613 
forces: 2624.200281 -0.023147 -853.595183 
Drag coefficient: 0.732333 
torque (ref. CG): 0.032406 (roll) -1533.050224 (pitch) 0.141198 (yaw) 
----------------------------------------------------- 
step 81, time 0.064800, maxvel 30.000000, total vol 183257, vol(u>maxvel) 5.88118, cell count 954778
bounding box (containing cells with vel>maxvel): xmin -12.2621 -1.69614 -0.503245, xmax 0.793584 1.69618 3.8817m 
bounding box of vehicle: xmin -12.2 -1.30008 -6.44084e-18, xmax 6.64751e-18 1.30008 3.6m 
gts area: 163.426 
yplus max: 130.38, yplus min: 0.0272088 
position of yplus max: -12.0304 -1.28988 1.94884 
yplus prom: 3.06496 
forces: 2616.798243 -0.023730 -852.907236 
Drag coefficient: 0.730267 
torque (ref. CG): 0.033221 (roll) -1539.216599 (pitch) 0.144750 (yaw) 
----------------------------------------------------- 
step 82, time 0.065600, maxvel 30.000000, total vol 183257, vol(u>maxvel) 5.85484, cell count 950298
bounding box (containing cells with vel>maxvel): xmin -12.2621 -1.69614 -0.503245, xmax 0.793584 1.69618 3.8817m 
bounding box of vehicle: xmin -12.2 -1.30008 -6.44084e-18, xmax 6.64751e-18 1.30008 3.6m 
gts area: 163.426 
yplus max: 130.377, yplus min: 0.027789 
position of yplus max: -12.0304 -1.28988 1.94884 
yplus prom: 3.06379 
forces: 2609.468432 -0.027611 -852.265824 
Drag coefficient: 0.728221 
torque (ref. CG): 0.038655 (roll) -1545.565719 (pitch) 0.168426 (yaw) 
----------------------------------------------------- 
step 83, time 0.066400, maxvel 30.000000, total vol 183257, vol(u>maxvel) 5.82615, cell count 946261
bounding box (containing cells with vel>maxvel): xmin -12.2621 -1.69614 -0.503245, xmax 0.793584 1.69618 3.8817m 
bounding box of vehicle: xmin -12.2 -1.30008 -6.44084e-18, xmax 6.64751e-18 1.30008 3.6m 
gts area: 163.426 
yplus max: 130.373, yplus min: 0.0283644 
position of yplus max: -12.0304 -1.28988 1.94884 
yplus prom: 3.0626 
forces: 2602.209236 -0.025901 -851.580768 
Drag coefficient: 0.726196 
torque (ref. CG): 0.036262 (roll) -1551.549755 (pitch) 0.157999 (yaw) 
----------------------------------------------------- 
step 84, time 0.067200, maxvel 30.000000, total vol 183257, vol(u>maxvel) 5.80613, cell count 942211
bounding box (containing cells with vel>maxvel): xmin -12.2621 -1.69614 -0.503245, xmax 0.793584 1.69618 3.8817m 
bounding box of vehicle: xmin -12.2 -1.30008 -6.44084e-18, xmax 6.64751e-18 1.30008 3.6m 
gts area: 163.426 
yplus max: 130.37, yplus min: 0.0289432 
position of yplus max: -12.0304 -1.28988 1.94884 
yplus prom: 3.06141 
forces: 2595.028718 -0.029419 -850.904873 
Drag coefficient: 0.724192 
torque (ref. CG): 0.041187 (roll) -1557.479517 (pitch) 0.179459 (yaw) 
----------------------------------------------------- 
step 85, time 0.068000, maxvel 30.000000, total vol 183257, vol(u>maxvel) 5.78976, cell count 938300
bounding box (containing cells with vel>maxvel): xmin -12.2621 -1.69614 -0.503245, xmax 0.793584 1.69618 3.8817m 
bounding box of vehicle: xmin -12.2 -1.30008 -6.44084e-18, xmax 6.64751e-18 1.30008 3.6m 
gts area: 163.426 
yplus max: 130.366, yplus min: 0.029521 
position of yplus max: -12.0304 -1.28988 1.94884 
yplus prom: 3.06021 
forces: 2587.917091 -0.032077 -850.229380 
Drag coefficient: 0.722207 
torque (ref. CG): 0.044908 (roll) -1563.315294 (pitch) 0.195671 (yaw) 
----------------------------------------------------- 
step 86, time 0.068800, maxvel 30.000000, total vol 183257, vol(u>maxvel) 5.77058, cell count 934511
bounding box (containing cells with vel>maxvel): xmin -12.2621 -1.69614 -0.503245, xmax 0.867902 1.69618 3.8817m 
bounding box of vehicle: xmin -12.2 -1.30008 -6.44084e-18, xmax 6.64751e-18 1.30008 3.6m 
gts area: 163.426 
yplus max: 130.363, yplus min: 0.0300945 
position of yplus max: -12.0304 -1.28988 1.94884 
yplus prom: 3.059 
forces: 2580.889771 -0.034911 -849.527622 
Drag coefficient: 0.720246 
torque (ref. CG): 0.048875 (roll) -1568.872815 (pitch) 0.212957 (yaw) 
----------------------------------------------------- 
step 87, time 0.069600, maxvel 30.000000, total vol 183257, vol(u>maxvel) 5.75704, cell count 930757
bounding box (containing cells with vel>maxvel): xmin -12.2621 -1.69614 -0.503245, xmax 0.868204 1.69618 3.8817m 
bounding box of vehicle: xmin -12.2 -1.30008 -6.44084e-18, xmax 6.64751e-18 1.30008 3.6m 
gts area: 163.426 
yplus max: 130.36, yplus min: 0.029623 
position of yplus max: -12.0304 -1.28988 1.94884 
yplus prom: 3.05779 
forces: 2573.910624 -0.031667 -848.826839 
Drag coefficient: 0.718298 
torque (ref. CG): 0.044334 (roll) -1574.368846 (pitch) 0.193168 (yaw) 
----------------------------------------------------- 
step 88, time 0.070400, maxvel 30.000000, total vol 183257, vol(u>maxvel) 5.73593, cell count 926974
bounding box (containing cells with vel>maxvel): xmin -12.2621 -1.69614 -0.503245, xmax 0.868326 1.69618 3.8817m 
bounding box of vehicle: xmin -12.2 -1.30008 -6.44084e-18, xmax 6.64751e-18 1.30008 3.6m 
gts area: 163.426 
yplus max: 130.357, yplus min: 0.029066 
position of yplus max: -12.0304 -1.28988 1.94884 
yplus prom: 3.05657 
forces: 2567.058099 -0.042738 -848.136654 
Drag coefficient: 0.716386 
torque (ref. CG): 0.059833 (roll) -1579.752252 (pitch) 0.260702 (yaw) 
----------------------------------------------------- 
step 89, time 0.071200, maxvel 30.000000, total vol 183257, vol(u>maxvel) 5.71865, cell count 923276
bounding box (containing cells with vel>maxvel): xmin -12.2621 -1.69614 -0.503245, xmax 0.868444 1.69618 3.8817m 
bounding box of vehicle: xmin -12.2 -1.30008 -6.44084e-18, xmax 6.64751e-18 1.30008 3.6m 
gts area: 163.426 
yplus max: 130.354, yplus min: 0.0286497 
position of yplus max: -12.0304 -1.28988 1.94884 
yplus prom: 3.05535 
forces: 2560.214686 -0.032680 -847.420205 
Drag coefficient: 0.714476 
torque (ref. CG): 0.045752 (roll) -1584.962689 (pitch) 0.199350 (yaw) 
----------------------------------------------------- 
step 90, time 0.072000, maxvel 30.000000, total vol 183257, vol(u>maxvel) 5.70238, cell count 919762
bounding box (containing cells with vel>maxvel): xmin -12.2621 -1.69614 -0.503245, xmax 0.868444 1.69618 3.88168m 
bounding box of vehicle: xmin -12.2 -1.30008 -6.44084e-18, xmax 6.64751e-18 1.30008 3.6m 
gts area: 163.426 
yplus max: 130.351, yplus min: 0.0284071 
position of yplus max: -12.0304 -1.28988 1.94884 
yplus prom: 3.05413 
forces: 2553.463188 -0.040477 -846.689405 
Drag coefficient: 0.712592 
torque (ref. CG): 0.056667 (roll) -1589.956906 (pitch) 0.246908 (yaw) 
----------------------------------------------------- 
step 91, time 0.072800, maxvel 30.000000, total vol 183257, vol(u>maxvel) 5.68427, cell count 916084
bounding box (containing cells with vel>maxvel): xmin -12.2621 -1.69614 -0.503245, xmax 0.868561 1.69618 3.88168m 
bounding box of vehicle: xmin -12.2 -1.30008 -6.44084e-18, xmax 6.64751e-18 1.30008 3.6m 
gts area: 163.426 
yplus max: 130.348, yplus min: 0.0283451 
position of yplus max: -12.0304 -1.28988 1.94884 
yplus prom: 3.0529 
forces: 2546.744981 -0.041785 -845.957855 
Drag coefficient: 0.710717 
torque (ref. CG): 0.058499 (roll) -1594.899945 (pitch) 0.254890 (yaw) 
----------------------------------------------------- 
step 92, time 0.073600, maxvel 30.000000, total vol 183257, vol(u>maxvel) 5.6728, cell count 912397
bounding box (containing cells with vel>maxvel): xmin -12.2621 -1.69614 -0.503245, xmax 0.868561 1.69618 3.88168m 
bounding box of vehicle: xmin -12.2 -1.30008 -6.44084e-18, xmax 6.64751e-18 1.30008 3.6m 
gts area: 163.426 
yplus max: 130.345, yplus min: 0.0129419 
position of yplus max: -12.0304 -1.28988 1.94884 
yplus prom: 3.05168 
forces: 2540.098030 -0.046952 -845.209453 
Drag coefficient: 0.708862 
torque (ref. CG): 0.065732 (roll) -1599.640421 (pitch) 0.286406 (yaw) 
----------------------------------------------------- 
step 93, time 0.074400, maxvel 30.000000, total vol 183257, vol(u>maxvel) 5.65701, cell count 908886
bounding box (containing cells with vel>maxvel): xmin -12.2621 -1.69614 -0.503245, xmax 0.868561 1.69618 3.88168m 
bounding box of vehicle: xmin -12.2 -1.30008 -6.44084e-18, xmax 6.64751e-18 1.30008 3.6m 
gts area: 163.426 
yplus max: 130.342, yplus min: 0.0183291 
position of yplus max: -12.0304 -1.28988 1.94884 
yplus prom: 3.05046 
forces: 2533.486553 -0.039777 -844.436299 
Drag coefficient: 0.707017 
torque (ref. CG): 0.055688 (roll) -1604.180247 (pitch) 0.242642 (yaw) 
----------------------------------------------------- 
step 94, time 0.075200, maxvel 30.000000, total vol 183257, vol(u>maxvel) 5.63902, cell count 905428
bounding box (containing cells with vel>maxvel): xmin -12.2621 -1.69614 -0.503245, xmax 0.868879 1.69618 3.88168m 
bounding box of vehicle: xmin -12.2 -1.30008 -6.44084e-18, xmax 6.64751e-18 1.30008 3.6m 
gts area: 163.426 
yplus max: 130.34, yplus min: 0.0291711 
position of yplus max: -12.0304 -1.28988 1.94884 
yplus prom: 3.04924 
forces: 2526.964423 -0.049767 -843.651562 
Drag coefficient: 0.705197 
torque (ref. CG): 0.069674 (roll) -1608.524338 (pitch) 0.303580 (yaw) 
----------------------------------------------------- 
step 95, time 0.076000, maxvel 30.000000, total vol 183257, vol(u>maxvel) 5.62096, cell count 901974
bounding box (containing cells with vel>maxvel): xmin -12.2621 -1.69614 -0.503245, xmax 0.868879 1.69618 3.88168m 
bounding box of vehicle: xmin -12.2 -1.30008 -6.44084e-18, xmax 6.64751e-18 1.30008 3.6m 
gts area: 163.426 
yplus max: 130.337, yplus min: 0.0297399 
position of yplus max: -12.0304 -1.28988 1.94884 
yplus prom: 3.04803 
forces: 2520.478337 -0.044430 -842.849296 
Drag coefficient: 0.703387 
torque (ref. CG): 0.062202 (roll) -1612.711033 (pitch) 0.271024 (yaw) 
----------------------------------------------------- 
step 96, time 0.076800, maxvel 30.000000, total vol 183257, vol(u>maxvel) 5.59972, cell count 898623
bounding box (containing cells with vel>maxvel): xmin -12.2621 -1.69614 -0.503245, xmax 0.868879 1.69618 3.88168m 
bounding box of vehicle: xmin -12.2 -1.30008 -6.44084e-18, xmax 6.64751e-18 1.30008 3.6m 
gts area: 163.426 
yplus max: 130.335, yplus min: 0.0304406 
position of yplus max: -12.0304 -1.28988 1.94884 
yplus prom: 3.04683 
forces: 2514.061632 -0.044803 -842.023807 
Drag coefficient: 0.701596 
torque (ref. CG): 0.062725 (roll) -1616.658940 (pitch) 0.273301 (yaw) 
----------------------------------------------------- 
step 97, time 0.077600, maxvel 30.000000, total vol 183257, vol(u>maxvel) 5.58279, cell count 895153
bounding box (containing cells with vel>maxvel): xmin -12.2621 -1.69614 -0.503245, xmax 0.868988 1.69618 3.88168m 
bounding box of vehicle: xmin -12.2 -1.30008 -6.44084e-18, xmax 6.64751e-18 1.30008 3.6m 
gts area: 163.426 
yplus max: 130.332, yplus min: 0.0312471 
position of yplus max: -12.0304 -1.28988 1.94884 
yplus prom: 3.04564 
forces: 2507.728550 -0.048887 -841.182345 
Drag coefficient: 0.699829 
torque (ref. CG): 0.068442 (roll) -1620.392333 (pitch) 0.298212 (yaw) 
----------------------------------------------------- 
step 98, time 0.078400, maxvel 30.000000, total vol 183257, vol(u>maxvel) 5.56539, cell count 892006
bounding box (containing cells with vel>maxvel): xmin -12.2621 -1.69614 -0.503245, xmax 0.941577 1.69618 3.88168m 
bounding box of vehicle: xmin -12.2 -1.30008 -6.44084e-18, xmax 6.64751e-18 1.30008 3.6m 
gts area: 163.426 
yplus max: 130.33, yplus min: 0.0321323 
position of yplus max: -12.0304 -1.28988 1.94884 
yplus prom: 3.04445 
forces: 2501.457280 -0.049002 -840.325526 
Drag coefficient: 0.698079 
torque (ref. CG): 0.068602 (roll) -1623.945516 (pitch) 0.298909 (yaw) 
----------------------------------------------------- 
step 99, time 0.079200, maxvel 30.000000, total vol 183257, vol(u>maxvel) 5.55469, cell count 888873
bounding box (containing cells with vel>maxvel): xmin -12.2621 -1.69614 -0.503245, xmax 0.941683 1.69618 3.88167m 
bounding box of vehicle: xmin -12.2 -1.30008 -6.44084e-18, xmax 6.64751e-18 1.30008 3.6m 
gts area: 163.426 
yplus max: 130.327, yplus min: 0.0330773 
position of yplus max: -12.0304 -1.28988 1.94884 
yplus prom: 3.04327 
forces: 2495.259486 -0.054540 -839.443825 
Drag coefficient: 0.696349 
torque (ref. CG): 0.076356 (roll) -1627.244049 (pitch) 0.332696 (yaw) 
----------------------------------------------------- 
step 100, time 0.080000, maxvel 30.000000, total vol 183257, vol(u>maxvel) 5.53736, cell count 885708
bounding box (containing cells with vel>maxvel): xmin -12.2621 -1.69614 -0.503245, xmax 0.941778 1.69618 3.88167m 
bounding box of vehicle: xmin -12.2 -1.30008 -6.44084e-18, xmax 6.64751e-18 1.30008 3.6m 
gts area: 163.426 
yplus max: 130.325, yplus min: 0.0340635 
position of yplus max: -12.0304 -1.28988 1.94884 
yplus prom: 3.0421 
forces: 2489.105775 -0.049433 -838.533474 
Drag coefficient: 0.694632 
torque (ref. CG): 0.069206 (roll) -1630.306107 (pitch) 0.301539 (yaw) 
----------------------------------------------------- 
step 101, time 0.080800, maxvel 30.000000, total vol 183257, vol(u>maxvel) 5.51506, cell count 882478
bounding box (containing cells with vel>maxvel): xmin -12.2621 -1.69614 -0.503245, xmax 0.942548 1.69618 3.88167m 
bounding box of vehicle: xmin -12.2 -1.30008 -6.44084e-18, xmax 6.64751e-18 1.30008 3.6m 
gts area: 163.426 
yplus max: 130.323, yplus min: 0.0257459 
position of yplus max: -12.0304 -1.28988 1.94884 
yplus prom: 3.04094 
forces: 2483.000748 -0.049373 -837.615032 
Drag coefficient: 0.692928 
torque (ref. CG): 0.069122 (roll) -1633.250651 (pitch) 0.301177 (yaw) 
----------------------------------------------------- 
step 102, time 0.081600, maxvel 30.000000, total vol 183257, vol(u>maxvel) 5.4997, cell count 879284
bounding box (containing cells with vel>maxvel): xmin -12.2621 -1.69614 -0.503245, xmax 0.942706 1.69618 3.87826m 
bounding box of vehicle: xmin -12.2 -1.30008 -6.44084e-18, xmax 6.64751e-18 1.30008 3.6m 
gts area: 163.426 
yplus max: 130.32, yplus min: 0.0327236 
position of yplus max: -12.0304 -1.28988 1.94884 
yplus prom: 3.03979 
forces: 2476.970842 -0.052378 -836.673377 
Drag coefficient: 0.691245 
torque (ref. CG): 0.073329 (roll) -1635.948419 (pitch) 0.319503 (yaw) 
----------------------------------------------------- 
step 103, time 0.082400, maxvel 30.000000, total vol 183257, vol(u>maxvel) 5.47585, cell count 876141
bounding box (containing cells with vel>maxvel): xmin -12.2621 -1.69614 -0.503245, xmax 0.942844 1.69618 3.87826m 
bounding box of vehicle: xmin -12.2 -1.30008 -6.44084e-18, xmax 6.64751e-18 1.30008 3.6m 
gts area: 163.426 
yplus max: 130.318, yplus min: 0.0300745 
position of yplus max: -12.0304 -1.28988 1.94884 
yplus prom: 3.03865 
forces: 2470.984488 -0.054661 -835.712927 
Drag coefficient: 0.689575 
torque (ref. CG): 0.076526 (roll) -1638.470570 (pitch) 0.333434 (yaw) 
----------------------------------------------------- 
step 104, time 0.083200, maxvel 30.000000, total vol 183257, vol(u>maxvel) 5.45103, cell count 872983
bounding box (containing cells with vel>maxvel): xmin -12.2621 -1.69614 -0.503245, xmax 0.942974 1.69618 3.87826m 
bounding box of vehicle: xmin -12.2 -1.30008 -6.44084e-18, xmax 6.64751e-18 1.30008 3.6m 
gts area: 163.426 
yplus max: 130.316, yplus min: 0.0382074 
position of yplus max: -12.0304 -1.28988 1.94884 
yplus prom: 3.03752 
forces: 2465.052587 -0.057692 -834.731247 
Drag coefficient: 0.687919 
torque (ref. CG): 0.080769 (roll) -1640.786983 (pitch) 0.351924 (yaw) 
----------------------------------------------------- 
step 105, time 0.084000, maxvel 30.000000, total vol 183257, vol(u>maxvel) 5.43816, cell count 869832
bounding box (containing cells with vel>maxvel): xmin -12.2621 -1.69614 -0.503245, xmax 0.942974 1.69618 3.87826m 
bounding box of vehicle: xmin -12.2 -1.30008 -6.44084e-18, xmax 6.64751e-18 1.30008 3.6m 
gts area: 163.426 
yplus max: 130.314, yplus min: 0.0392531 
position of yplus max: -12.0304 -1.28988 1.94884 
yplus prom: 3.0364 
forces: 2459.156351 -0.054913 -833.724339 
Drag coefficient: 0.686274 
torque (ref. CG): 0.076878 (roll) -1642.899575 (pitch) 0.334967 (yaw) 
----------------------------------------------------- 
step 106, time 0.084800, maxvel 30.000000, total vol 183257, vol(u>maxvel) 5.41203, cell count 866848
bounding box (containing cells with vel>maxvel): xmin -12.2621 -1.69614 -0.503245, xmax 0.942974 1.69618 3.87826m 
bounding box of vehicle: xmin -12.2 -1.30008 -6.44084e-18, xmax 6.64751e-18 1.30008 3.6m 
gts area: 163.426 
yplus max: 130.312, yplus min: 0.0402944 
position of yplus max: -12.0304 -1.28988 1.94884 
yplus prom: 3.03529 
forces: 2453.316524 -0.054077 -832.706840 
Drag coefficient: 0.684644 
torque (ref. CG): 0.075708 (roll) -1644.868590 (pitch) 0.329872 (yaw) 
----------------------------------------------------- 
step 107, time 0.085600, maxvel 30.000000, total vol 183257, vol(u>maxvel) 5.40307, cell count 863859
bounding box (containing cells with vel>maxvel): xmin -12.2621 -1.69614 -0.503245, xmax 0.943104 1.69618 3.87826m 
bounding box of vehicle: xmin -12.2 -1.30008 -6.44084e-18, xmax 6.64751e-18 1.30008 3.6m 
gts area: 163.426 
yplus max: 130.31, yplus min: 0.0408215 
position of yplus max: -12.0304 -1.28988 1.94884 
yplus prom: 3.03419 
forces: 2447.551916 -0.059493 -831.657984 
Drag coefficient: 0.683036 
torque (ref. CG): 0.083291 (roll) -1646.541022 (pitch) 0.362909 (yaw) 
----------------------------------------------------- 
step 108, time 0.086400, maxvel 30.000000, total vol 183257, vol(u>maxvel) 5.37783, cell count 860856
bounding box (containing cells with vel>maxvel): xmin -12.2621 -1.69614 -0.503245, xmax 0.943104 1.69618 3.87826m 
bounding box of vehicle: xmin -12.2 -1.30008 -6.44084e-18, xmax 6.64751e-18 1.30008 3.6m 
gts area: 163.426 
yplus max: 130.308, yplus min: 0.0401314 
position of yplus max: -12.0304 -1.28988 1.94884 
yplus prom: 3.03311 
forces: 2441.825257 -0.059793 -830.605035 
Drag coefficient: 0.681437 
torque (ref. CG): 0.083711 (roll) -1648.135351 (pitch) 0.364740 (yaw) 
----------------------------------------------------- 
step 109, time 0.087200, maxvel 30.000000, total vol 183257, vol(u>maxvel) 5.36042, cell count 857754
bounding box (containing cells with vel>maxvel): xmin -12.2621 -1.69614 -0.503245, xmax 0.943104 1.69618 3.87826m 
bounding box of vehicle: xmin -12.2 -1.30008 -6.44084e-18, xmax 6.64751e-18 1.30008 3.6m 
gts area: 163.426 
yplus max: 130.306, yplus min: 0.039509 
position of yplus max: -12.0304 -1.28988 1.94884 
yplus prom: 3.03203 
forces: 2436.157673 -0.055722 -829.523336 
Drag coefficient: 0.679856 
torque (ref. CG): 0.078011 (roll) -1649.471606 (pitch) 0.339907 (yaw) 
----------------------------------------------------- 
step 110, time 0.088000, maxvel 30.000000, total vol 183257, vol(u>maxvel) 5.32721, cell count 854634
bounding box (containing cells with vel>maxvel): xmin -12.2621 -1.69614 -0.503245, xmax 1.01617 1.69618 3.87826m 
bounding box of vehicle: xmin -12.2 -1.30008 -6.44084e-18, xmax 6.64751e-18 1.30008 3.6m 
gts area: 163.426 
yplus max: 130.304, yplus min: 0.0389687 
position of yplus max: -12.0304 -1.28988 1.94884 
yplus prom: 3.03097 
forces: 2430.542992 -0.062373 -828.418696 
Drag coefficient: 0.678289 
torque (ref. CG): 0.087322 (roll) -1650.593855 (pitch) 0.380474 (yaw) 
----------------------------------------------------- 
step 111, time 0.088800, maxvel 30.000000, total vol 183257, vol(u>maxvel) 5.30361, cell count 851512
bounding box (containing cells with vel>maxvel): xmin -12.2621 -1.69614 -0.503245, xmax 1.01639 1.69618 3.87825m 
bounding box of vehicle: xmin -12.2 -1.30008 -6.44084e-18, xmax 6.64751e-18 1.30008 3.6m 
gts area: 163.426 
yplus max: 130.302, yplus min: 0.0385214 
position of yplus max: -12.0304 -1.28988 1.94884 
yplus prom: 3.02992 
forces: 2424.968223 -0.059283 -827.295892 
Drag coefficient: 0.676733 
torque (ref. CG): 0.082996 (roll) -1651.549430 (pitch) 0.361627 (yaw) 
----------------------------------------------------- 
step 112, time 0.089600, maxvel 30.000000, total vol 183257, vol(u>maxvel) 5.29004, cell count 848507
bounding box (containing cells with vel>maxvel): xmin -12.2621 -1.69614 -0.503245, xmax 1.01639 1.69618 3.87825m 
bounding box of vehicle: xmin -12.2 -1.30008 -6.44084e-18, xmax 6.64751e-18 1.30008 3.6m 
gts area: 163.426 
yplus max: 130.3, yplus min: 0.038182 
position of yplus max: -12.0304 -1.28988 1.94884 
yplus prom: 3.02888 
forces: 2419.437821 -0.062696 -826.161849 
Drag coefficient: 0.675190 
torque (ref. CG): 0.087774 (roll) -1652.374330 (pitch) 0.382445 (yaw) 
----------------------------------------------------- 
step 113, time 0.090400, maxvel 30.000000, total vol 183257, vol(u>maxvel) 5.26354, cell count 845452
bounding box (containing cells with vel>maxvel): xmin -12.2621 -1.69614 -0.503245, xmax 1.01651 1.69618 3.87825m 
bounding box of vehicle: xmin -12.2 -1.30008 -6.44084e-18, xmax 6.64751e-18 1.30008 3.6m 
gts area: 163.426 
yplus max: 130.298, yplus min: 0.0379552 
position of yplus max: -12.0304 -1.28988 1.94884 
yplus prom: 3.02785 
forces: 2413.954958 -0.059721 -824.996774 
Drag coefficient: 0.673660 
torque (ref. CG): 0.083609 (roll) -1652.943382 (pitch) 0.364297 (yaw) 
----------------------------------------------------- 
step 114, time 0.091200, maxvel 30.000000, total vol 183257, vol(u>maxvel) 5.24738, cell count 842315
bounding box (containing cells with vel>maxvel): xmin -12.2621 -1.69614 -0.503245, xmax 1.01651 1.69618 3.87825m 
bounding box of vehicle: xmin -12.2 -1.30008 -6.44084e-18, xmax 6.64751e-18 1.30008 3.6m 
gts area: 163.426 
yplus max: 130.296, yplus min: 0.0378535 
position of yplus max: -12.0304 -1.28988 1.94884 
yplus prom: 3.02684 
forces: 2408.517445 -0.063832 -823.823221 
Drag coefficient: 0.672142 
torque (ref. CG): 0.089364 (roll) -1653.397226 (pitch) 0.389372 (yaw) 
----------------------------------------------------- 
step 115, time 0.092000, maxvel 30.000000, total vol 183257, vol(u>maxvel) 5.22683, cell count 839181
bounding box (containing cells with vel>maxvel): xmin -12.2621 -1.69614 -0.503245, xmax 1.01662 1.69618 3.87825m 
bounding box of vehicle: xmin -12.2 -1.30008 -6.44084e-18, xmax 6.64751e-18 1.30008 3.6m 
gts area: 163.426 
yplus max: 130.295, yplus min: 0.0378771 
position of yplus max: -12.0304 -1.28988 1.94884 
yplus prom: 3.02584 
forces: 2403.119744 -0.060589 -822.619164 
Drag coefficient: 0.670636 
torque (ref. CG): 0.084825 (roll) -1653.609257 (pitch) 0.369593 (yaw) 
----------------------------------------------------- 
step 116, time 0.092800, maxvel 30.000000, total vol 183257, vol(u>maxvel) 5.2067, cell count 836045
bounding box (containing cells with vel>maxvel): xmin -12.2621 -1.69614 -0.503245, xmax 1.01662 1.69618 3.87825m 
bounding box of vehicle: xmin -12.2 -1.30008 -6.44084e-18, xmax 6.64751e-18 1.30008 3.6m 
gts area: 163.426 
yplus max: 130.293, yplus min: 0.0380311 
position of yplus max: -12.0304 -1.28988 1.94884 
yplus prom: 3.02485 
forces: 2397.773848 -0.064954 -821.406469 
Drag coefficient: 0.669144 
torque (ref. CG): 0.090935 (roll) -1653.696073 (pitch) 0.396216 (yaw) 
----------------------------------------------------- 
step 117, time 0.093600, maxvel 30.000000, total vol 183257, vol(u>maxvel) 5.18161, cell count 832885
bounding box (containing cells with vel>maxvel): xmin -12.2621 -1.69614 -0.503245, xmax 1.01672 1.69618 3.87825m 
bounding box of vehicle: xmin -12.2 -1.30008 -6.44084e-18, xmax 6.64751e-18 1.30008 3.6m 
gts area: 163.426 
yplus max: 130.291, yplus min: 0.038294 
position of yplus max: -12.0304 -1.28988 1.94884 
yplus prom: 3.02387 
forces: 2392.473711 -0.062853 -820.170548 
Drag coefficient: 0.667665 
torque (ref. CG): 0.087995 (roll) -1653.577149 (pitch) 0.383406 (yaw) 
----------------------------------------------------- 
step 118, time 0.094400, maxvel 30.000000, total vol 183257, vol(u>maxvel) 5.15589, cell count 829677
bounding box (containing cells with vel>maxvel): xmin -12.2621 -1.69614 -0.503245, xmax 1.01672 1.69618 3.87825m 
bounding box of vehicle: xmin -12.2 -1.30008 -6.44084e-18, xmax 6.64751e-18 1.30008 3.6m 
gts area: 163.426 
yplus max: 130.29, yplus min: 0.0386328 
position of yplus max: -12.0304 -1.28988 1.94884 
yplus prom: 3.02291 
forces: 2387.217118 -0.063765 -818.910508 
Drag coefficient: 0.666198 
torque (ref. CG): 0.089271 (roll) -1653.250133 (pitch) 0.388967 (yaw) 
----------------------------------------------------- 
step 119, time 0.095200, maxvel 30.000000, total vol 183257, vol(u>maxvel) 5.13124, cell count 826589
bounding box (containing cells with vel>maxvel): xmin -12.2621 -1.69614 -0.503245, xmax 1.01672 1.69618 3.87825m 
bounding box of vehicle: xmin -12.2 -1.30008 -6.44084e-18, xmax 6.64751e-18 1.30008 3.6m 
gts area: 163.426 
yplus max: 130.288, yplus min: 0.0385141 
position of yplus max: -12.0304 -1.28988 1.94884 
yplus prom: 3.02196 
forces: 2381.999115 -0.064068 -817.639539 
Drag coefficient: 0.664742 
torque (ref. CG): 0.089695 (roll) -1652.802428 (pitch) 0.390815 (yaw) 
----------------------------------------------------- 
step 120, time 0.096000, maxvel 30.000000, total vol 183257, vol(u>maxvel) 5.11079, cell count 823371
bounding box (containing cells with vel>maxvel): xmin -12.2621 -1.69614 -0.503245, xmax 1.01682 1.69618 3.87825m 
bounding box of vehicle: xmin -12.2 -1.30008 -6.44084e-18, xmax 6.64751e-18 1.30008 3.6m 
gts area: 163.426 
yplus max: 130.286, yplus min: 0.0380314 
position of yplus max: -12.0304 -1.28988 1.94884 
yplus prom: 3.02102 
forces: 2376.818534 -0.063830 -816.355033 
Drag coefficient: 0.663296 
torque (ref. CG): 0.089362 (roll) -1652.219754 (pitch) 0.389364 (yaw) 
----------------------------------------------------- 
step 121, time 0.096800, maxvel 30.000000, total vol 183257, vol(u>maxvel) 5.08435, cell count 819993
bounding box (containing cells with vel>maxvel): xmin -12.2621 -1.69614 -0.503245, xmax 1.01682 1.69618 3.87825m 
bounding box of vehicle: xmin -12.2 -1.30008 -6.44084e-18, xmax 6.64751e-18 1.30008 3.6m 
gts area: 163.426 
yplus max: 130.285, yplus min: 0.0214306 
position of yplus max: -12.0304 -1.28988 1.94884 
yplus prom: 3.02009 
forces: 2371.671552 -0.064976 -815.054864 
Drag coefficient: 0.661860 
torque (ref. CG): 0.090967 (roll) -1651.494499 (pitch) 0.396355 (yaw) 
----------------------------------------------------- 
step 122, time 0.097600, maxvel 30.000000, total vol 183257, vol(u>maxvel) 5.0614, cell count 816911
bounding box (containing cells with vel>maxvel): xmin -12.2621 -1.69614 -0.503245, xmax 1.01682 1.69618 3.87824m 
bounding box of vehicle: xmin -12.2 -1.30008 -6.44084e-18, xmax 6.64751e-18 1.30008 3.6m 
gts area: 163.426 
yplus max: 130.283, yplus min: 0.0373898 
position of yplus max: -12.0304 -1.28988 1.94884 
yplus prom: 3.01918 
forces: 2366.560631 -0.063191 -813.741125 
Drag coefficient: 0.660433 
torque (ref. CG): 0.088468 (roll) -1650.635981 (pitch) 0.385466 (yaw) 
----------------------------------------------------- 
step 123, time 0.098400, maxvel 30.000000, total vol 183257, vol(u>maxvel) 5.04074, cell count 813809
bounding box (containing cells with vel>maxvel): xmin -12.2621 -1.69614 -0.503245, xmax 1.01682 1.69615 3.87824m 
bounding box of vehicle: xmin -12.2 -1.30008 -6.44084e-18, xmax 6.64751e-18 1.30008 3.6m 
gts area: 163.426 
yplus max: 130.282, yplus min: 0.0372601 
position of yplus max: -12.0304 -1.28988 1.94884 
yplus prom: 3.01828 
forces: 2361.477904 -0.064660 -812.411889 
Drag coefficient: 0.659015 
torque (ref. CG): 0.090524 (roll) -1649.643459 (pitch) 0.394427 (yaw) 
----------------------------------------------------- 
step 124, time 0.099200, maxvel 30.000000, total vol 183257, vol(u>maxvel) 5.02341, cell count 810816
bounding box (containing cells with vel>maxvel): xmin -12.2621 -1.69611 -0.503245, xmax 1.09133 1.69615 3.87824m 
bounding box of vehicle: xmin -12.2 -1.30008 -6.44084e-18, xmax 6.64751e-18 1.30008 3.6m 
gts area: 163.426 
yplus max: 130.28, yplus min: 0.0372678 
position of yplus max: -12.0304 -1.28988 1.94884 
yplus prom: 3.01739 
forces: 2356.423896 -0.060589 -811.065675 
Drag coefficient: 0.657605 
[...]
torque (ref. CG): 0.054188 (roll) -1843.835297 (pitch) 0.236104 (yaw) 
----------------------------------------------------- 
step 6220, time 4.976000, maxvel 30.000000, total vol 183257, vol(u>maxvel) 1.96251, cell count 523842
bounding box (containing cells with vel>maxvel): xmin -12.262 -1.69592 -0.503245, xmax -10.7851 1.69609 3.25679m 
bounding box of vehicle: xmin -12.2 -1.30008 -6.44084e-18, xmax 6.64751e-18 1.30008 3.6m 
gts area: 163.426 
yplus max: 129.815, yplus min: 0.0508209 
position of yplus max: -12.0304 -1.28988 1.94884 
yplus prom: 2.86617 
forces: 1173.357574 -0.038716 -571.567273 
Drag coefficient: 0.327448 
torque (ref. CG): 0.054202 (roll) -1843.859764 (pitch) 0.236167 (yaw) 
----------------------------------------------------- 
step 6221, time 4.976800, maxvel 30.000000, total vol 183257, vol(u>maxvel) 1.96251, cell count 523841
bounding box (containing cells with vel>maxvel): xmin -12.262 -1.69592 -0.503245, xmax -10.7851 1.69609 3.25679m 
bounding box of vehicle: xmin -12.2 -1.30008 -6.44084e-18, xmax 6.64751e-18 1.30008 3.6m 
gts area: 163.426 
yplus max: 129.815, yplus min: 0.0508222 
position of yplus max: -12.0304 -1.28988 1.94884 
yplus prom: 2.86617 
forces: 1173.356582 -0.039002 -571.579568 
Drag coefficient: 0.327447 
torque (ref. CG): 0.054603 (roll) -1843.936149 (pitch) 0.237914 (yaw) 
----------------------------------------------------- 
step 6222, time 4.977600, maxvel 30.000000, total vol 183257, vol(u>maxvel) 1.96251, cell count 523842
bounding box (containing cells with vel>maxvel): xmin -12.262 -1.69592 -0.503245, xmax -10.7851 1.69609 3.25679m 
bounding box of vehicle: xmin -12.2 -1.30008 -6.44084e-18, xmax 6.64751e-18 1.30008 3.6m 
gts area: 163.426 
yplus max: 129.815, yplus min: 0.0508129 
position of yplus max: -12.0304 -1.28988 1.94884 
yplus prom: 2.86617 
forces: 1173.360037 -0.041925 -571.549578 
Drag coefficient: 0.327448 
torque (ref. CG): 0.058694 (roll) -1843.748373 (pitch) 0.255740 (yaw) 
----------------------------------------------------- 
step 6223, time 4.978400, maxvel 30.000000, total vol 183257, vol(u>maxvel) 1.96251, cell count 523841
bounding box (containing cells with vel>maxvel): xmin -12.262 -1.69592 -0.503245, xmax -10.7851 1.69609 3.25679m 
bounding box of vehicle: xmin -12.2 -1.30008 -6.44084e-18, xmax 6.64751e-18 1.30008 3.6m 
gts area: 163.426 
yplus max: 129.815, yplus min: 0.0508386 
position of yplus max: -12.0304 -1.28988 1.94884 
yplus prom: 2.86617 
forces: 1173.360100 -0.041717 -571.553836 
Drag coefficient: 0.327448 
torque (ref. CG): 0.058404 (roll) -1843.774262 (pitch) 0.254473 (yaw) 
----------------------------------------------------- 
step 6224, time 4.979200, maxvel 30.000000, total vol 183257, vol(u>maxvel) 1.96251, cell count 523841
bounding box (containing cells with vel>maxvel): xmin -12.262 -1.69592 -0.503245, xmax -10.7851 1.69609 3.25679m 
bounding box of vehicle: xmin -12.2 -1.30008 -6.44084e-18, xmax 6.64751e-18 1.30008 3.6m 
gts area: 163.426 
yplus max: 129.815, yplus min: 0.0508211 
position of yplus max: -12.0304 -1.28988 1.94884 
yplus prom: 2.86617 
forces: 1173.360940 -0.042347 -571.560549 
Drag coefficient: 0.327448 
torque (ref. CG): 0.059286 (roll) -1843.814035 (pitch) 0.258318 (yaw) 
----------------------------------------------------- 
step 6225, time 4.980000, maxvel 30.000000, total vol 183257, vol(u>maxvel) 1.96251, cell count 523841
bounding box (containing cells with vel>maxvel): xmin -12.262 -1.69592 -0.503245, xmax -10.7851 1.69609 3.25679m 
bounding box of vehicle: xmin -12.2 -1.30008 -6.44084e-18, xmax 6.64751e-18 1.30008 3.6m 
gts area: 163.426 
yplus max: 129.815, yplus min: 0.0508264 
position of yplus max: -12.0304 -1.28988 1.94884 
yplus prom: 2.86617 
forces: 1173.359889 -0.042224 -571.565252 
Drag coefficient: 0.327448 
torque (ref. CG): 0.059114 (roll) -1843.844193 (pitch) 0.257567 (yaw) 
----------------------------------------------------- 
step 6226, time 4.980800, maxvel 30.000000, total vol 183257, vol(u>maxvel) 1.96251, cell count 523841
bounding box (containing cells with vel>maxvel): xmin -12.262 -1.69592 -0.503245, xmax -10.7851 1.69609 3.25679m 
bounding box of vehicle: xmin -12.2 -1.30008 -6.44084e-18, xmax 6.64751e-18 1.30008 3.6m 
gts area: 163.426 
yplus max: 129.815, yplus min: 0.0508211 
position of yplus max: -12.0304 -1.28988 1.94884 
yplus prom: 2.86617 
forces: 1173.357205 -0.040713 -571.577510 
Drag coefficient: 0.327447 
torque (ref. CG): 0.056998 (roll) -1843.922723 (pitch) 0.248349 (yaw) 
----------------------------------------------------- 
step 6227, time 4.981600, maxvel 30.000000, total vol 183257, vol(u>maxvel) 1.96251, cell count 523841
bounding box (containing cells with vel>maxvel): xmin -12.262 -1.69592 -0.503245, xmax -10.7851 1.69609 3.25679m 
bounding box of vehicle: xmin -12.2 -1.30008 -6.44084e-18, xmax 6.64751e-18 1.30008 3.6m 
gts area: 163.426 
yplus max: 129.815, yplus min: 0.0508122 
position of yplus max: -12.0304 -1.28988 1.94884 
yplus prom: 2.86617 
forces: 1173.360773 -0.043166 -571.539031 
Drag coefficient: 0.327448 
torque (ref. CG): 0.060433 (roll) -1843.683006 (pitch) 0.263315 (yaw) 
----------------------------------------------------- 
step 6228, time 4.982400, maxvel 30.000000, total vol 183257, vol(u>maxvel) 1.96251, cell count 523841
bounding box (containing cells with vel>maxvel): xmin -12.262 -1.69592 -0.503245, xmax -10.7851 1.69609 3.25679m 
bounding box of vehicle: xmin -12.2 -1.30008 -6.44084e-18, xmax 6.64751e-18 1.30008 3.6m 
gts area: 163.426 
yplus max: 129.815, yplus min: 0.050842 
position of yplus max: -12.0304 -1.28988 1.94884 
yplus prom: 2.86617 
forces: 1173.360274 -0.042700 -571.544009 
Drag coefficient: 0.327448 
torque (ref. CG): 0.059781 (roll) -1843.714072 (pitch) 0.260473 (yaw) 
----------------------------------------------------- 
step 6229, time 4.983200, maxvel 30.000000, total vol 183257, vol(u>maxvel) 1.96251, cell count 523841
bounding box (containing cells with vel>maxvel): xmin -12.262 -1.69592 -0.503245, xmax -10.7851 1.69609 3.25679m 
bounding box of vehicle: xmin -12.2 -1.30008 -6.44084e-18, xmax 6.64751e-18 1.30008 3.6m 
gts area: 163.426 
yplus max: 129.815, yplus min: 0.0508195 
position of yplus max: -12.0304 -1.28988 1.94884 
yplus prom: 2.86617 
forces: 1173.359596 -0.042570 -571.548962 
Drag coefficient: 0.327448 
torque (ref. CG): 0.059598 (roll) -1843.745232 (pitch) 0.259677 (yaw) 
----------------------------------------------------- 
step 6230, time 4.984000, maxvel 30.000000, total vol 183257, vol(u>maxvel) 1.96251, cell count 523842
bounding box (containing cells with vel>maxvel): xmin -12.262 -1.69592 -0.503245, xmax -10.7851 1.69609 3.25679m 
bounding box of vehicle: xmin -12.2 -1.30008 -6.44084e-18, xmax 6.64751e-18 1.30008 3.6m 
gts area: 163.426 
yplus max: 129.815, yplus min: 0.0508269 
position of yplus max: -12.0304 -1.28988 1.94884 
yplus prom: 2.86617 
forces: 1173.358510 -0.042516 -571.561250 
Drag coefficient: 0.327448 
torque (ref. CG): 0.059522 (roll) -1843.821712 (pitch) 0.259345 (yaw) 
----------------------------------------------------- 
step 6231, time 4.984800, maxvel 30.000000, total vol 183257, vol(u>maxvel) 1.96251, cell count 523842
bounding box (containing cells with vel>maxvel): xmin -12.262 -1.69592 -0.503245, xmax -10.7851 1.69609 3.25679m 
bounding box of vehicle: xmin -12.2 -1.30008 -6.44084e-18, xmax 6.64751e-18 1.30008 3.6m 
gts area: 163.426 
yplus max: 129.815, yplus min: 0.050823 
position of yplus max: -12.0304 -1.28988 1.94884 
yplus prom: 2.86617 
forces: 1173.358410 -0.042513 -571.565335 
Drag coefficient: 0.327448 
torque (ref. CG): 0.059519 (roll) -1843.846769 (pitch) 0.259331 (yaw) 
----------------------------------------------------- 
step 6232, time 4.985600, maxvel 30.000000, total vol 183257, vol(u>maxvel) 1.96251, cell count 523842
bounding box (containing cells with vel>maxvel): xmin -12.262 -1.69592 -0.503245, xmax -10.7851 1.69609 3.25679m 
bounding box of vehicle: xmin -12.2 -1.30008 -6.44084e-18, xmax 6.64751e-18 1.30008 3.6m 
gts area: 163.426 
yplus max: 129.815, yplus min: 0.0507996 
position of yplus max: -12.0304 -1.28988 1.94884 
yplus prom: 2.86617 
forces: 1173.359855 -0.045569 -571.587245 
Drag coefficient: 0.327448 
torque (ref. CG): 0.063797 (roll) -1843.978397 (pitch) 0.277972 (yaw) 
----------------------------------------------------- 
step 6233, time 4.986400, maxvel 30.000000, total vol 183257, vol(u>maxvel) 1.96251, cell count 523842
bounding box (containing cells with vel>maxvel): xmin -12.262 -1.69592 -0.503245, xmax -10.7851 1.69609 3.25679m 
bounding box of vehicle: xmin -12.2 -1.30008 -6.44084e-18, xmax 6.64751e-18 1.30008 3.6m 
gts area: 163.426 
yplus max: 129.815, yplus min: 0.0508472 
position of yplus max: -12.0304 -1.28988 1.94884 
yplus prom: 2.86617 
forces: 1173.359613 -0.045323 -571.585626 
Drag coefficient: 0.327448 
torque (ref. CG): 0.063452 (roll) -1843.968862 (pitch) 0.276471 (yaw) 
----------------------------------------------------- 
step 6234, time 4.987200, maxvel 30.000000, total vol 183257, vol(u>maxvel) 1.96251, cell count 523841
bounding box (containing cells with vel>maxvel): xmin -12.262 -1.69592 -0.503245, xmax -10.7851 1.69609 3.25679m 
bounding box of vehicle: xmin -12.2 -1.30008 -6.44084e-18, xmax 6.64751e-18 1.30008 3.6m 
gts area: 163.426 
yplus max: 129.815, yplus min: 0.0508228 
position of yplus max: -12.0304 -1.28988 1.94884 
yplus prom: 2.86617 
forces: 1173.359330 -0.045012 -571.581595 
Drag coefficient: 0.327448 
torque (ref. CG): 0.063017 (roll) -1843.944669 (pitch) 0.274573 (yaw) 
----------------------------------------------------- 
step 6235, time 4.988000, maxvel 30.000000, total vol 183257, vol(u>maxvel) 1.96251, cell count 523841
bounding box (containing cells with vel>maxvel): xmin -12.262 -1.69592 -0.503245, xmax -10.7851 1.69609 3.25679m 
bounding box of vehicle: xmin -12.2 -1.30008 -6.44084e-18, xmax 6.64751e-18 1.30008 3.6m 
gts area: 163.426 
yplus max: 129.815, yplus min: 0.0508232 
position of yplus max: -12.0304 -1.28988 1.94884 
yplus prom: 2.86617 
forces: 1173.358817 -0.046388 -571.532545 
Drag coefficient: 0.327448 
torque (ref. CG): 0.064943 (roll) -1843.646184 (pitch) 0.282968 (yaw) 
----------------------------------------------------- 
step 6236, time 4.988800, maxvel 30.000000, total vol 183257, vol(u>maxvel) 1.96251, cell count 523840
bounding box (containing cells with vel>maxvel): xmin -12.262 -1.69592 -0.503245, xmax -10.7851 1.69609 3.25679m 
bounding box of vehicle: xmin -12.2 -1.30008 -6.44084e-18, xmax 6.64751e-18 1.30008 3.6m 
gts area: 163.426 
yplus max: 129.815, yplus min: 0.0508245 
position of yplus max: -12.0304 -1.28988 1.94884 
yplus prom: 2.86617 
forces: 1173.358018 -0.045933 -571.538076 
Drag coefficient: 0.327448 
torque (ref. CG): 0.064306 (roll) -1843.681038 (pitch) 0.280189 (yaw) 
----------------------------------------------------- 
step 6237, time 4.989600, maxvel 30.000000, total vol 183257, vol(u>maxvel) 1.96251, cell count 523841
bounding box (containing cells with vel>maxvel): xmin -12.262 -1.69592 -0.503245, xmax -10.7851 1.69609 3.25679m 
bounding box of vehicle: xmin -12.2 -1.30008 -6.44084e-18, xmax 6.64751e-18 1.30008 3.6m 
gts area: 163.426 
yplus max: 129.815, yplus min: 0.0508251 
position of yplus max: -12.0304 -1.28988 1.94884 
yplus prom: 2.86617 
forces: 1173.357663 -0.045529 -571.545428 
Drag coefficient: 0.327448 
torque (ref. CG): 0.063741 (roll) -1843.726382 (pitch) 0.277727 (yaw) 
----------------------------------------------------- 
step 6238, time 4.990400, maxvel 30.000000, total vol 183257, vol(u>maxvel) 1.96251, cell count 523841
bounding box (containing cells with vel>maxvel): xmin -12.262 -1.69592 -0.503245, xmax -10.7851 1.69609 3.25679m 
bounding box of vehicle: xmin -12.2 -1.30008 -6.44084e-18, xmax 6.64751e-18 1.30008 3.6m 
gts area: 163.426 
yplus max: 129.815, yplus min: 0.0508214 
position of yplus max: -12.0304 -1.28988 1.94884 
yplus prom: 2.86617 
forces: 1173.359098 -0.043304 -571.580245 
Drag coefficient: 0.327448 
torque (ref. CG): 0.060626 (roll) -1843.936755 (pitch) 0.264155 (yaw) 
----------------------------------------------------- 
step 6239, time 4.991200, maxvel 30.000000, total vol 183257, vol(u>maxvel) 1.96251, cell count 523841
bounding box (containing cells with vel>maxvel): xmin -12.262 -1.69592 -0.503245, xmax -10.7851 1.69609 3.25679m 
bounding box of vehicle: xmin -12.2 -1.30008 -6.44084e-18, xmax 6.64751e-18 1.30008 3.6m 
gts area: 163.426 
yplus max: 129.815, yplus min: 0.0508112 
position of yplus max: -12.0304 -1.28988 1.94884 
yplus prom: 2.86617 
forces: 1173.362383 -0.045470 -571.542105 
Drag coefficient: 0.327449 
torque (ref. CG): 0.063659 (roll) -1843.699507 (pitch) 0.277370 (yaw) 
----------------------------------------------------- 
step 6240, time 4.992000, maxvel 30.000000, total vol 183257, vol(u>maxvel) 1.96251, cell count 523841
bounding box (containing cells with vel>maxvel): xmin -12.262 -1.69592 -0.503245, xmax -10.7851 1.69609 3.25679m 
bounding box of vehicle: xmin -12.2 -1.30008 -6.44084e-18, xmax 6.64751e-18 1.30008 3.6m 
gts area: 163.426 
yplus max: 129.815, yplus min: 0.050843 
position of yplus max: -12.0304 -1.28988 1.94884 
yplus prom: 2.86617 
forces: 1173.361885 -0.045257 -571.546063 
Drag coefficient: 0.327449 
torque (ref. CG): 0.063360 (roll) -1843.724346 (pitch) 0.276068 (yaw) 
----------------------------------------------------- 
step 6241, time 4.992800, maxvel 30.000000, total vol 183257, vol(u>maxvel) 1.96251, cell count 523841
bounding box (containing cells with vel>maxvel): xmin -12.262 -1.69592 -0.503245, xmax -10.7851 1.69609 3.25679m 
bounding box of vehicle: xmin -12.2 -1.30008 -6.44084e-18, xmax 6.64751e-18 1.30008 3.6m 
gts area: 163.426 
yplus max: 129.815, yplus min: 0.0508191 
position of yplus max: -12.0304 -1.28988 1.94884 
yplus prom: 2.86617 
forces: 1173.361142 -0.045343 -571.549281 
Drag coefficient: 0.327449 
torque (ref. CG): 0.063480 (roll) -1843.745014 (pitch) 0.276590 (yaw) 
----------------------------------------------------- 
step 6242, time 4.993600, maxvel 30.000000, total vol 183257, vol(u>maxvel) 1.96251, cell count 523841
bounding box (containing cells with vel>maxvel): xmin -12.262 -1.69592 -0.503245, xmax -10.7851 1.69609 3.25679m 
bounding box of vehicle: xmin -12.2 -1.30008 -6.44084e-18, xmax 6.64751e-18 1.30008 3.6m 
gts area: 163.426 
yplus max: 129.815, yplus min: 0.0508263 
position of yplus max: -12.0304 -1.28988 1.94884 
yplus prom: 2.86617 
forces: 1173.359800 -0.045743 -571.557918 
Drag coefficient: 0.327448 
torque (ref. CG): 0.064040 (roll) -1843.799577 (pitch) 0.279029 (yaw) 
----------------------------------------------------- 
step 6243, time 4.994400, maxvel 30.000000, total vol 183257, vol(u>maxvel) 1.96251, cell count 523842
bounding box (containing cells with vel>maxvel): xmin -12.262 -1.69592 -0.503245, xmax -10.7851 1.69609 3.25679m 
bounding box of vehicle: xmin -12.2 -1.30008 -6.44084e-18, xmax 6.64751e-18 1.30008 3.6m 
gts area: 163.426 
yplus max: 129.815, yplus min: 0.0508108 
position of yplus max: -12.0304 -1.28988 1.94884 
yplus prom: 2.86617 
forces: 1173.358822 -0.049558 -571.564640 
Drag coefficient: 0.327448 
torque (ref. CG): 0.069382 (roll) -1843.841952 (pitch) 0.302305 (yaw) 
----------------------------------------------------- 
step 6244, time 4.995200, maxvel 30.000000, total vol 183257, vol(u>maxvel) 1.96251, cell count 523842
bounding box (containing cells with vel>maxvel): xmin -12.262 -1.69592 -0.503245, xmax -10.7851 1.69609 3.25679m 
bounding box of vehicle: xmin -12.2 -1.30008 -6.44084e-18, xmax 6.64751e-18 1.30008 3.6m 
gts area: 163.426 
yplus max: 129.815, yplus min: 0.0508206 
position of yplus max: -12.0304 -1.28988 1.94884 
yplus prom: 2.86617 
forces: 1173.357003 -0.049326 -571.578674 
Drag coefficient: 0.327447 
torque (ref. CG): 0.069057 (roll) -1843.930106 (pitch) 0.300890 (yaw) 
----------------------------------------------------- 
step 6245, time 4.996000, maxvel 30.000000, total vol 183257, vol(u>maxvel) 1.96251, cell count 523842
bounding box (containing cells with vel>maxvel): xmin -12.262 -1.69592 -0.503245, xmax -10.7851 1.69609 3.25679m 
bounding box of vehicle: xmin -12.2 -1.30008 -6.44084e-18, xmax 6.64751e-18 1.30008 3.6m 
gts area: 163.426 
yplus max: 129.815, yplus min: 0.0508441 
position of yplus max: -12.0304 -1.28988 1.94884 
yplus prom: 2.86617 
forces: 1173.356458 -0.049108 -571.583255 
Drag coefficient: 0.327447 
torque (ref. CG): 0.068752 (roll) -1843.958814 (pitch) 0.299561 (yaw) 
----------------------------------------------------- 
step 6246, time 4.996800, maxvel 30.000000, total vol 183257, vol(u>maxvel) 1.96251, cell count 523842
bounding box (containing cells with vel>maxvel): xmin -12.262 -1.69592 -0.503245, xmax -10.7851 1.69609 3.25679m 
bounding box of vehicle: xmin -12.2 -1.30008 -6.44084e-18, xmax 6.64751e-18 1.30008 3.6m 
gts area: 163.426 
yplus max: 129.815, yplus min: 0.0508184 
position of yplus max: -12.0304 -1.28988 1.94884 
yplus prom: 2.86617 
forces: 1173.356058 -0.048897 -571.588861 
Drag coefficient: 0.327447 
torque (ref. CG): 0.068456 (roll) -1843.993573 (pitch) 0.298272 (yaw) 
----------------------------------------------------- 
step 6247, time 4.997600, maxvel 30.000000, total vol 183257, vol(u>maxvel) 1.96251, cell count 523842
bounding box (containing cells with vel>maxvel): xmin -12.262 -1.69592 -0.503245, xmax -10.7851 1.69609 3.25679m 
bounding box of vehicle: xmin -12.2 -1.30008 -6.44084e-18, xmax 6.64751e-18 1.30008 3.6m 
gts area: 163.426 
yplus max: 129.815, yplus min: 0.0508334 
position of yplus max: -12.0304 -1.28988 1.94884 
yplus prom: 2.86617 
forces: 1173.353562 -0.048082 -571.630552 
Drag coefficient: 0.327446 
torque (ref. CG): 0.067315 (roll) -1844.251379 (pitch) 0.293301 (yaw) 
----------------------------------------------------- 
step 6248, time 4.998400, maxvel 30.000000, total vol 183257, vol(u>maxvel) 1.96251, cell count 523842
bounding box (containing cells with vel>maxvel): xmin -12.262 -1.69592 -0.503245, xmax -10.7851 1.69609 3.25679m 
bounding box of vehicle: xmin -12.2 -1.30008 -6.44084e-18, xmax 6.64751e-18 1.30008 3.6m 
gts area: 163.426 
yplus max: 129.815, yplus min: 0.0508119 
position of yplus max: -12.0304 -1.28988 1.94884 
yplus prom: 2.86617 
forces: 1173.354058 -0.047943 -571.630246 
Drag coefficient: 0.327447 
torque (ref. CG): 0.067121 (roll) -1844.248819 (pitch) 0.292454 (yaw) 
----------------------------------------------------- 
step 6249, time 4.999200, maxvel 30.000000, total vol 183257, vol(u>maxvel) 1.96251, cell count 523842
bounding box (containing cells with vel>maxvel): xmin -12.262 -1.69592 -0.503245, xmax -10.7851 1.69609 3.25679m 
bounding box of vehicle: xmin -12.2 -1.30008 -6.44084e-18, xmax 6.64751e-18 1.30008 3.6m 
gts area: 163.426 
yplus max: 129.815, yplus min: 0.0508183 
position of yplus max: -12.0304 -1.28988 1.94884 
yplus prom: 2.86617 
forces: 1173.355720 -0.045047 -571.566015 
Drag coefficient: 0.327447 
torque (ref. CG): 0.063066 (roll) -1843.854682 (pitch) 0.274787 (yaw) 
----------------------------------------------------- 
step 6250, time 5.000000, maxvel 30.000000, total vol 183257, vol(u>maxvel) 1.96251, cell count 523842
bounding box (containing cells with vel>maxvel): xmin -12.262 -1.69592 -0.503245, xmax -10.7851 1.69609 3.25679m 
bounding box of vehicle: xmin -12.2 -1.30008 -6.44084e-18, xmax 6.64751e-18 1.30008 3.6m 
gts area: 163.426 
yplus max: 129.815, yplus min: 0.0508327 
position of yplus max: -12.0304 -1.28988 1.94884 
yplus prom: 2.86618 
forces: 1173.357132 -0.045537 -571.560404 
Drag coefficient: 0.327447 
torque (ref. CG): 0.063752 (roll) -1843.818479 (pitch) 0.277777 (yaw) 
----------------------------------------------------- 

 *****************************
  Post-calculation operations
 *****************************

Ends run at sb sep 3 13:16:43 ART 2022
