Start run at vie sep 9 16:23:10 ART 2022
PYTHON_CS_XFLAGS=' -O0 -g3 -ggdb3 -I/usr/include/jsoncpp ' /share/storage/pub/mstorti/saturne-vof/bin/code_saturne  run --param setup.xml

The following have been reloaded with a version change:
  1) llvm/6.0.0 => llvm/3.4.2


The following have been reloaded with a version change:
  1) llvm/3.4.2 => llvm/6.0.0


                      Code_Saturne
                      ************

 Version:   6.1-alpha
 Path:      /share/storage/pub/mstorti/saturne-vof

 Result directory:
   /share/storage/finzeo/GTS_Tunay_2/RESU/20220909-1623


 ****************************************
  Compiling user subroutines and linking
 ****************************************


 ****************************
  Preparing calculation data
 ****************************

 Parallel Code_Saturne on 80 processes.


 ***************************
  Preprocessing calculation
 ***************************


 **********************
  Starting calculation
 **********************

Warning: Process to core binding is enabled and OMP_NUM_THREADS is set to non-zero (1) value
If your program has OpenMP sections, this can cause over-subscription of cores and consequently poor performance
To avoid this, please re-run your application after setting MV2_ENABLE_AFFINITY=0
Use MV2_USE_THREAD_WARNING=0 to suppress this message
step 1, time 0.000750, maxvel 3.000000, total vol 359.697, vol(u>maxvel) 0, cell count 0
bounding box (containing cells with vel>maxvel): xmin inf inf inf, xmax -inf -inf -infm 
bounding box of vehicle: xmin -2.47489 -0.161927 0.0631, xmax 0 0.161927 0.5139m 
gts area: 4.03325 
yplus max: 4.43412, yplus min: 0 
position of yplus max: -2.28486 -0.00753125 0.48394 
yplus prom: 3.85413 
forces: 26.339223 0.017418 -3.636557 
Drag coefficient: 195.839103 
torque (ref. CG): -0.004152 (roll) 1.779395 (pitch) -0.021553 (yaw) 
----------------------------------------------------- 
