Start run at vie sep 9 16:21:54 ART 2022
PYTHON_CS_XFLAGS=' -O0 -g3 -ggdb3 -I/usr/include/jsoncpp ' /share/storage/pub/mstorti/saturne-vof/bin/code_saturne  run --param setup.xml

The following have been reloaded with a version change:
  1) llvm/6.0.0 => llvm/3.4.2


The following have been reloaded with a version change:
  1) llvm/3.4.2 => llvm/6.0.0


                      Code_Saturne
                      ************

 Version:   6.1-alpha
 Path:      /share/storage/pub/mstorti/saturne-vof

 Result directory:
   /share/storage/finzeo/GTS_Tunay_2/RESU/20220909-1621


 ****************************************
  Compiling user subroutines and linking
 ****************************************


 ****************************
  Preparing calculation data
 ****************************

 Parallel Code_Saturne on 80 processes.


 ***************************
  Preprocessing calculation
 ***************************


 **********************
  Starting calculation
 **********************

Warning: Process to core binding is enabled and OMP_NUM_THREADS is set to non-zero (1) value
If your program has OpenMP sections, this can cause over-subscription of cores and consequently poor performance
To avoid this, please re-run your application after setting MV2_ENABLE_AFFINITY=0
Use MV2_USE_THREAD_WARNING=0 to suppress this message
step 1, time 0.000750, maxvel 3.000000, total vol 359.697, vol(u>maxvel) 0, cell count 0
bounding box (containing cells with vel>maxvel): xmin inf inf inf, xmax -inf -inf -infm 
bounding box of vehicle: xmin -2.47489 -0.161927 0.0631, xmax 0 0.161927 0.5139m 
gts area: 4.03325 
yplus max: 4.43412, yplus min: 0 
position of yplus max: -2.28486 -0.00753125 0.48394 
yplus prom: 3.85413 
forces: 26.339223 0.017418 -3.636557 
Drag coefficient: 195.839103 
torque (ref. CG): -0.004152 (roll) 1.779395 (pitch) -0.021553 (yaw) 
----------------------------------------------------- 
step 2, time 0.001500, maxvel 3.000000, total vol 359.697, vol(u>maxvel) 0, cell count 0
bounding box (containing cells with vel>maxvel): xmin inf inf inf, xmax -inf -inf -infm 
bounding box of vehicle: xmin -2.47489 -0.161927 0.0631, xmax 0 0.161927 0.5139m 
gts area: 4.03325 
yplus max: 1.06138, yplus min: 0.170303 
position of yplus max: -2.31953 -0.00684782 0.47069 
yplus prom: 0.835586 
forces: 81.527045 -0.002052 -9.923559 
Drag coefficient: 606.175179 
torque (ref. CG): 0.000489 (roll) 7.156635 (pitch) 0.002539 (yaw) 
----------------------------------------------------- 
step 3, time 0.002250, maxvel 3.000000, total vol 359.697, vol(u>maxvel) 0, cell count 0
bounding box (containing cells with vel>maxvel): xmin inf inf inf, xmax -inf -inf -infm 
bounding box of vehicle: xmin -2.47489 -0.161927 0.0631, xmax 0 0.161927 0.5139m 
gts area: 4.03325 
yplus max: 3.77162, yplus min: 0.0727019 
position of yplus max: -2.47418 0.160898 0.138855 
yplus prom: 0.987132 
forces: 21.529360 0.023120 -2.140155 
Drag coefficient: 160.076495 
torque (ref. CG): -0.005512 (roll) 2.484371 (pitch) -0.028609 (yaw) 
----------------------------------------------------- 
step 4, time 0.003000, maxvel 3.000000, total vol 359.697, vol(u>maxvel) 0, cell count 0
bounding box (containing cells with vel>maxvel): xmin inf inf inf, xmax -inf -inf -infm 
bounding box of vehicle: xmin -2.47489 -0.161927 0.0631, xmax 0 0.161927 0.5139m 
gts area: 4.03325 
yplus max: 3.63542, yplus min: 0.166637 
position of yplus max: -2.47422 0.16113 0.106396 
yplus prom: 0.952437 
forces: -0.484460 0.002143 0.064350 
Drag coefficient: -3.602091 
torque (ref. CG): -0.000511 (roll) -0.035868 (pitch) -0.002651 (yaw) 
----------------------------------------------------- 
step 5, time 0.003750, maxvel 3.000000, total vol 359.697, vol(u>maxvel) 0, cell count 0
bounding box (containing cells with vel>maxvel): xmin inf inf inf, xmax -inf -inf -infm 
bounding box of vehicle: xmin -2.47489 -0.161927 0.0631, xmax 0 0.161927 0.5139m 
gts area: 4.03325 
yplus max: 3.5881, yplus min: 0.144955 
position of yplus max: -2.47428 0.160903 0.117671 
yplus prom: 0.942862 
forces: -0.489435 -0.003481 0.121281 
Drag coefficient: -3.639078 
torque (ref. CG): 0.000830 (roll) 0.033391 (pitch) 0.004308 (yaw) 
----------------------------------------------------- 
step 6, time 0.004500, maxvel 3.000000, total vol 359.697, vol(u>maxvel) 0, cell count 0
bounding box (containing cells with vel>maxvel): xmin inf inf inf, xmax -inf -inf -infm 
bounding box of vehicle: xmin -2.47489 -0.161927 0.0631, xmax 0 0.161927 0.5139m 
gts area: 4.03325 
yplus max: 3.6576, yplus min: 0.176323 
position of yplus max: -2.47422 0.16113 0.106396 
yplus prom: 0.940478 
forces: 0.052727 0.000709 0.004116 
Drag coefficient: 0.392037 
torque (ref. CG): -0.000169 (roll) 0.017664 (pitch) -0.000877 (yaw) 
----------------------------------------------------- 
step 7, time 0.005250, maxvel 3.000000, total vol 359.697, vol(u>maxvel) 0, cell count 0
bounding box (containing cells with vel>maxvel): xmin inf inf inf, xmax -inf -inf -infm 
bounding box of vehicle: xmin -2.47489 -0.161927 0.0631, xmax 0 0.161927 0.5139m 
gts area: 4.03325 
yplus max: 3.71774, yplus min: 0.136399 
position of yplus max: -2.47422 0.16113 0.106396 
yplus prom: 0.938655 
forces: 0.119726 0.001669 -0.015271 
Drag coefficient: 0.890191 
torque (ref. CG): -0.000398 (roll) 0.009646 (pitch) -0.002065 (yaw) 
----------------------------------------------------- 
step 8, time 0.006000, maxvel 3.000000, total vol 359.697, vol(u>maxvel) 0, cell count 0
bounding box (containing cells with vel>maxvel): xmin inf inf inf, xmax -inf -inf -infm 
bounding box of vehicle: xmin -2.47489 -0.161927 0.0631, xmax 0 0.161927 0.5139m 
gts area: 4.03325 
yplus max: 3.76076, yplus min: 0.0722096 
position of yplus max: -2.47422 0.16113 0.106396 
yplus prom: 0.937082 
forces: 0.102589 0.001471 -0.011921 
Drag coefficient: 0.762773 
torque (ref. CG): -0.000351 (roll) 0.009706 (pitch) -0.001820 (yaw) 
----------------------------------------------------- 
step 9, time 0.006750, maxvel 3.000000, total vol 359.697, vol(u>maxvel) 0, cell count 0
bounding box (containing cells with vel>maxvel): xmin inf inf inf, xmax -inf -inf -infm 
bounding box of vehicle: xmin -2.47489 -0.161927 0.0631, xmax 0 0.161927 0.5139m 
gts area: 4.03325 
yplus max: 3.79503, yplus min: 0.167337 
position of yplus max: -2.47422 0.16113 0.106396 
yplus prom: 0.936132 
forces: 0.096164 0.001280 -0.010248 
Drag coefficient: 0.715004 
torque (ref. CG): -0.000305 (roll) 0.010245 (pitch) -0.001584 (yaw) 
----------------------------------------------------- 
step 10, time 0.007500, maxvel 3.000000, total vol 359.697, vol(u>maxvel) 0, cell count 0
bounding box (containing cells with vel>maxvel): xmin inf inf inf, xmax -inf -inf -infm 
bounding box of vehicle: xmin -2.47489 -0.161927 0.0631, xmax 0 0.161927 0.5139m 
gts area: 4.03325 
yplus max: 3.82396, yplus min: 0.158339 
position of yplus max: -2.47422 0.16113 0.106396 
yplus prom: 0.935822 
forces: 0.096622 0.001227 -0.010244 
Drag coefficient: 0.718410 
torque (ref. CG): -0.000292 (roll) 0.010359 (pitch) -0.001518 (yaw) 
----------------------------------------------------- 
step 11, time 0.008250, maxvel 3.000000, total vol 359.697, vol(u>maxvel) 0, cell count 0
bounding box (containing cells with vel>maxvel): xmin inf inf inf, xmax -inf -inf -infm 
bounding box of vehicle: xmin -2.47489 -0.161927 0.0631, xmax 0 0.161927 0.5139m 
gts area: 4.03325 
yplus max: 3.84907, yplus min: 0.131856 
position of yplus max: -2.47422 0.16113 0.106396 
yplus prom: 0.936106 
forces: 0.097795 0.001211 -0.010481 
Drag coefficient: 0.727134 
torque (ref. CG): -0.000289 (roll) 0.010345 (pitch) -0.001499 (yaw) 
----------------------------------------------------- 
step 12, time 0.009000, maxvel 3.000000, total vol 359.697, vol(u>maxvel) 0, cell count 0
bounding box (containing cells with vel>maxvel): xmin inf inf inf, xmax -inf -inf -infm 
bounding box of vehicle: xmin -2.47489 -0.161927 0.0631, xmax 0 0.161927 0.5139m 
gts area: 4.03325 
yplus max: 3.87118, yplus min: 0.197644 
position of yplus max: -2.47422 0.16113 0.106396 
yplus prom: 0.936834 
forces: 0.098651 0.001199 -0.010657 
Drag coefficient: 0.733493 
torque (ref. CG): -0.000286 (roll) 0.010332 (pitch) -0.001484 (yaw) 
----------------------------------------------------- 
srun: Job step aborted: Waiting up to 32 seconds for job step to finish.
srun: got SIGCONT
slurmstepd: error: *** JOB 140697 ON compute-0-17 CANCELLED AT 2022-09-09T16:22:52 ***
srun: forcing job termination
make: *** [run] Terminado
slurmstepd: error: *** STEP 140697.0 ON compute-0-17 CANCELLED AT 2022-09-09T16:22:52 ***
