Start run at jue sep 8 15:14:38 ART 2022
PYTHON_CS_XFLAGS=' -O0 -g3 -ggdb3 -I/usr/include/jsoncpp ' /share/storage/pub/mstorti/saturne-vof/bin/code_saturne  run --param setup.xml

The following have been reloaded with a version change:
  1) llvm/6.0.0 => llvm/3.4.2


The following have been reloaded with a version change:
  1) llvm/3.4.2 => llvm/6.0.0


                      Code_Saturne
                      ************

 Version:   6.1-alpha
 Path:      /share/storage/pub/mstorti/saturne-vof

 Result directory:
   /share/storage/finzeo/GTS_Tunay_2/RESU/20220908-1514


 ****************************************
  Compiling user subroutines and linking
 ****************************************


 ****************************
  Preparing calculation data
 ****************************

 Parallel Code_Saturne on 60 processes.


 ***************************
  Preprocessing calculation
 ***************************


 **********************
  Starting calculation
 **********************

Warning: Process to core binding is enabled and OMP_NUM_THREADS is set to non-zero (1) value
If your program has OpenMP sections, this can cause over-subscription of cores and consequently poor performance
To avoid this, please re-run your application after setting MV2_ENABLE_AFFINITY=0
Use MV2_USE_THREAD_WARNING=0 to suppress this message
step 1, time 0.000800, maxvel 3.000000, total vol 183257, vol(u>maxvel) 183257, cell count 48723017
bounding box (containing cells with vel>maxvel): xmin -37.5001 -17.7002 -0.50396, xmax 116.7 17.7002 32.1087m 
bounding box of vehicle: xmin inf inf inf, xmax -inf -inf -infm 
gts area: 0 
yplus max: -inf, yplus min: inf 
position of yplus max: -inf -inf -inf 
yplus prom: -nan 
forces: 0.000000 0.000000 0.000000 
Drag coefficient: 0.000000 
torque (ref. CG): 0.000000 (roll) 0.000000 (pitch) 0.000000 (yaw) 
----------------------------------------------------- 
step 2, time 0.001600, maxvel 3.000000, total vol 183257, vol(u>maxvel) 183257, cell count 45512212
bounding box (containing cells with vel>maxvel): xmin -37.5001 -17.7002 -0.50396, xmax 116.7 17.7002 32.1087m 
bounding box of vehicle: xmin inf inf inf, xmax -inf -inf -infm 
gts area: 0 
yplus max: -inf, yplus min: inf 
position of yplus max: -inf -inf -inf 
yplus prom: -nan 
forces: 0.000000 0.000000 0.000000 
Drag coefficient: 0.000000 
torque (ref. CG): 0.000000 (roll) 0.000000 (pitch) 0.000000 (yaw) 
----------------------------------------------------- 
step 3, time 0.002400, maxvel 3.000000, total vol 183257, vol(u>maxvel) 183257, cell count 48920346
bounding box (containing cells with vel>maxvel): xmin -37.5001 -17.7002 -0.50396, xmax 116.7 17.7002 32.1087m 
bounding box of vehicle: xmin inf inf inf, xmax -inf -inf -infm 
gts area: 0 
yplus max: -inf, yplus min: inf 
position of yplus max: -inf -inf -inf 
yplus prom: -nan 
forces: 0.000000 0.000000 0.000000 
Drag coefficient: 0.000000 
torque (ref. CG): 0.000000 (roll) 0.000000 (pitch) 0.000000 (yaw) 
----------------------------------------------------- 

===================================================================================
=   BAD TERMINATION OF ONE OF YOUR APPLICATION PROCESSES
=   PID 141886 RUNNING AT compute-0-3
=   EXIT CODE: 1
=   CLEANING UP REMAINING PROCESSES
=   YOU CAN IGNORE THE BELOW CLEANUP MESSAGES
===================================================================================
[proxy:0:2@compute-0-20.local] HYD_pmcd_pmip_control_cmd_cb (pm/pmiserv/pmip_cb.c:909): assert (!closed) failed
[proxy:0:2@compute-0-20.local] HYDT_dmxu_poll_wait_for_event (tools/demux/demux_poll.c:76): callback returned error status
[proxy:0:2@compute-0-20.local] main (pm/pmiserv/pmip.c:206): demux engine error waiting for event
[proxy:0:1@compute-0-12.local] HYD_pmcd_pmip_control_cmd_cb (pm/pmiserv/pmip_cb.c:909): assert (!closed) failed
[proxy:0:1@compute-0-12.local] HYDT_dmxu_poll_wait_for_event (tools/demux/demux_poll.c:76): callback returned error status
[proxy:0:1@compute-0-12.local] main (pm/pmiserv/pmip.c:206): demux engine error waiting for event
srun: error: compute-0-12: task 1: Exited with exit code 7
srun: error: compute-0-20: task 2: Exited with exit code 7
[mpiexec@compute-0-3.local] HYDT_bscu_wait_for_completion (tools/bootstrap/utils/bscu_wait.c:76): one of the processes terminated badly; aborting
[mpiexec@compute-0-3.local] HYDT_bsci_wait_for_completion (tools/bootstrap/src/bsci_wait.c:23): launcher returned error waiting for completion
[mpiexec@compute-0-3.local] HYD_pmci_wait_for_completion (pm/pmiserv/pmiserv_pmci.c:218): launcher returned error waiting for completion
[mpiexec@compute-0-3.local] main (ui/mpich/mpiexec.c:344): process manager error waiting for completion
 solver script exited with status 255.

Error running the calculation.

Check Code_Saturne log (listing) and error* files for details.


 *****************************
  Post-calculation operations
 *****************************

 Error in calculation stage.

make: *** [run] Error 1
