Start run at Tue Aug 2 20:11:28 ART 2022
PYTHON_CS_XFLAGS=' -O0 -g3 -ggdb3 -I/usr/include/jsoncpp ' /share/storage/pub/mstorti/saturne-vof/bin/code_saturne  run --param setup.xml

The following have been reloaded with a version change:
  1) llvm/6.0.0 => llvm/3.4.2


The following have been reloaded with a version change:
  1) llvm/3.4.2 => llvm/6.0.0


                      Code_Saturne
                      ************

 Version:   6.1-alpha
 Path:      /share/storage/pub/mstorti/saturne-vof

 Result directory:
   /share/storage/finzeo/GTS_Tunay_2/RESU/20220802-2011


 ****************************************
  Compiling user subroutines and linking
 ****************************************


 ****************************
  Preparing calculation data
 ****************************

 Parallel Code_Saturne on 40 processes.


 ***************************
  Preprocessing calculation
 ***************************


 **********************
  Starting calculation
 **********************

Warning: Process to core binding is enabled and OMP_NUM_THREADS is set to non-zero (1) value
If your program has OpenMP sections, this can cause over-subscription of cores and consequently poor performance
To avoid this, please re-run your application after setting MV2_ENABLE_AFFINITY=0
Use MV2_USE_THREAD_WARNING=0 to suppress this message
step 1, time 0.001000, maxvel 2.000000, total vol 181461, vol(u>maxvel) 0, cell count 0
bounding box (containing cells with vel>maxvel): xmin inf inf inf, xmax -inf -inf -infm 
bounding box of vehicle: xmin -12.2 -1.30003 -2.05998e-17, xmax 9.54098e-18 1.30033 3.6m 
yplus max: 48.4504, yplus min: 0 
position of yplus max: -7.40311 0.775062 3.6 
yplus prom: 12.437 
----------------------------------------------------- 
step 1, time 0.001000, forces 23704.411880 -38.256063 -907.531174 
step 2, time 0.002000, maxvel 2.000000, total vol 181461, vol(u>maxvel) 0, cell count 0
bounding box (containing cells with vel>maxvel): xmin inf inf inf, xmax -inf -inf -infm 
bounding box of vehicle: xmin -12.2 -1.30003 -2.05998e-17, xmax 9.54098e-18 1.30033 3.6m 
yplus max: 48.2121, yplus min: 1.79631 
position of yplus max: -12.1108 -0.922731 2.25661 
yplus prom: 8.55738 
----------------------------------------------------- 
step 2, time 0.002000, forces 29911.586823 -1.431020 -3711.315665 
step 3, time 0.003000, maxvel 2.000000, total vol 181461, vol(u>maxvel) 0, cell count 0
bounding box (containing cells with vel>maxvel): xmin inf inf inf, xmax -inf -inf -infm 
bounding box of vehicle: xmin -12.2 -1.30003 -2.05998e-17, xmax 9.54098e-18 1.30033 3.6m 
yplus max: 48.2869, yplus min: 1.74043 
position of yplus max: -12.1108 -0.922731 2.25661 
yplus prom: 8.65254 
----------------------------------------------------- 
step 3, time 0.003000, forces 2347.506472 3.069828 -260.317179 
step 4, time 0.004000, maxvel 2.000000, total vol 181461, vol(u>maxvel) 0, cell count 0
bounding box (containing cells with vel>maxvel): xmin inf inf inf, xmax -inf -inf -infm 
bounding box of vehicle: xmin -12.2 -1.30003 -2.05998e-17, xmax 9.54098e-18 1.30033 3.6m 
yplus max: 47.8582, yplus min: 1.41203 
position of yplus max: -12.1108 -0.922731 2.25661 
yplus prom: 8.6505 
----------------------------------------------------- 
step 4, time 0.004000, forces -47.414522 -0.781179 30.676284 
step 5, time 0.005000, maxvel 2.000000, total vol 181461, vol(u>maxvel) 0, cell count 0
bounding box (containing cells with vel>maxvel): xmin inf inf inf, xmax -inf -inf -infm 
bounding box of vehicle: xmin -12.2 -1.30003 -2.05998e-17, xmax 9.54098e-18 1.30033 3.6m 
yplus max: 47.6572, yplus min: 1.33917 
position of yplus max: -12.1108 -0.922731 2.25661 
yplus prom: 8.65606 
----------------------------------------------------- 
step 5, time 0.005000, forces 2.633601 -0.184699 5.361276 
step 6, time 0.006000, maxvel 2.000000, total vol 181461, vol(u>maxvel) 0, cell count 0
bounding box (containing cells with vel>maxvel): xmin inf inf inf, xmax -inf -inf -infm 
bounding box of vehicle: xmin -12.2 -1.30003 -2.05998e-17, xmax 9.54098e-18 1.30033 3.6m 
yplus max: 47.543, yplus min: 1.24475 
position of yplus max: -12.1108 -0.922731 2.25661 
yplus prom: 8.66279 
----------------------------------------------------- 
step 6, time 0.006000, forces 12.327690 0.008305 -1.645307 
step 7, time 0.007000, maxvel 2.000000, total vol 181461, vol(u>maxvel) 0, cell count 0
bounding box (containing cells with vel>maxvel): xmin inf inf inf, xmax -inf -inf -infm 
bounding box of vehicle: xmin -12.2 -1.30003 -2.05998e-17, xmax 9.54098e-18 1.30033 3.6m 
yplus max: 47.4606, yplus min: 0.867177 
position of yplus max: -12.1108 -0.922731 2.25661 
yplus prom: 8.66962 
----------------------------------------------------- 
step 7, time 0.007000, forces 10.675086 0.006040 -1.786308 
step 8, time 0.008000, maxvel 2.000000, total vol 181461, vol(u>maxvel) 0, cell count 0
bounding box (containing cells with vel>maxvel): xmin inf inf inf, xmax -inf -inf -infm 
bounding box of vehicle: xmin -12.2 -1.30003 -2.05998e-17, xmax 9.54098e-18 1.30033 3.6m 
yplus max: 47.3987, yplus min: 0.740272 
position of yplus max: -12.1108 -0.922731 2.25661 
yplus prom: 8.67649 
----------------------------------------------------- 
step 8, time 0.008000, forces 9.573908 0.001454 -1.546132 
step 9, time 0.009000, maxvel 2.000000, total vol 181461, vol(u>maxvel) 0, cell count 0
bounding box (containing cells with vel>maxvel): xmin inf inf inf, xmax -inf -inf -infm 
bounding box of vehicle: xmin -12.2 -1.30003 -2.05998e-17, xmax 9.54098e-18 1.30033 3.6m 
yplus max: 47.3538, yplus min: 0.811956 
position of yplus max: -12.1108 -0.922731 2.25661 
yplus prom: 8.6834 
----------------------------------------------------- 
step 9, time 0.009000, forces 9.045465 0.000089 -1.497984 
step 10, time 0.010000, maxvel 2.000000, total vol 181461, vol(u>maxvel) 0, cell count 0
bounding box (containing cells with vel>maxvel): xmin inf inf inf, xmax -inf -inf -infm 
bounding box of vehicle: xmin -12.2 -1.30003 -2.05998e-17, xmax 9.54098e-18 1.30033 3.6m 
yplus max: 47.323, yplus min: 0.629453 
position of yplus max: -12.1108 -0.922731 2.25661 
yplus prom: 8.69025 
----------------------------------------------------- 
step 10, time 0.010000, forces 8.728635 0.000487 -1.498185 
step 11, time 0.011000, maxvel 2.000000, total vol 181461, vol(u>maxvel) 0, cell count 0
bounding box (containing cells with vel>maxvel): xmin inf inf inf, xmax -inf -inf -infm 
bounding box of vehicle: xmin -12.2 -1.30003 -2.05998e-17, xmax 9.54098e-18 1.30033 3.6m 
yplus max: 47.304, yplus min: 0.452307 
position of yplus max: -12.1108 -0.922731 2.25661 
yplus prom: 8.69702 
----------------------------------------------------- 
step 11, time 0.011000, forces 8.508862 0.000781 -1.501452 
step 12, time 0.012000, maxvel 2.000000, total vol 181461, vol(u>maxvel) 0, cell count 0
bounding box (containing cells with vel>maxvel): xmin inf inf inf, xmax -inf -inf -infm 
bounding box of vehicle: xmin -12.2 -1.30003 -2.05998e-17, xmax 9.54098e-18 1.30033 3.6m 
yplus max: 47.2948, yplus min: 0.514343 
position of yplus max: -12.1108 -0.922731 2.25661 
yplus prom: 8.70384 
----------------------------------------------------- 
step 12, time 0.012000, forces 8.344994 0.000680 -1.503566 
step 13, time 0.013000, maxvel 2.000000, total vol 181461, vol(u>maxvel) 0, cell count 0
bounding box (containing cells with vel>maxvel): xmin inf inf inf, xmax -inf -inf -infm 
bounding box of vehicle: xmin -12.2 -1.30003 -2.05998e-17, xmax 9.54098e-18 1.30033 3.6m 
yplus max: 47.2935, yplus min: 0.424895 
position of yplus max: -12.1108 -0.922731 2.25661 
yplus prom: 8.71072 
----------------------------------------------------- 
step 13, time 0.013000, forces 8.216988 0.000667 -1.505199 
step 14, time 0.014000, maxvel 2.000000, total vol 181461, vol(u>maxvel) 0, cell count 0
bounding box (containing cells with vel>maxvel): xmin inf inf inf, xmax -inf -inf -infm 
bounding box of vehicle: xmin -12.2 -1.30003 -2.05998e-17, xmax 9.54098e-18 1.30033 3.6m 
yplus max: 47.2985, yplus min: 0.664799 
position of yplus max: -12.1108 -0.922731 2.25661 
yplus prom: 8.71752 
----------------------------------------------------- 
step 14, time 0.014000, forces 8.112999 0.000481 -1.506884 
step 15, time 0.015000, maxvel 2.000000, total vol 181461, vol(u>maxvel) 0, cell count 0
bounding box (containing cells with vel>maxvel): xmin inf inf inf, xmax -inf -inf -infm 
bounding box of vehicle: xmin -12.2 -1.30003 -2.05998e-17, xmax 9.54098e-18 1.30033 3.6m 
yplus max: 47.3087, yplus min: 0.355267 
position of yplus max: -12.1108 -0.922731 2.25661 
yplus prom: 8.72434 
----------------------------------------------------- 
step 15, time 0.015000, forces 8.025815 0.000371 -1.508486 
step 16, time 0.016000, maxvel 2.000000, total vol 181461, vol(u>maxvel) 0, cell count 0
bounding box (containing cells with vel>maxvel): xmin inf inf inf, xmax -inf -inf -infm 
bounding box of vehicle: xmin -12.2 -1.30003 -2.05998e-17, xmax 9.54098e-18 1.30033 3.6m 
yplus max: 47.3229, yplus min: 0.68698 
position of yplus max: -12.1108 -0.922731 2.25661 
yplus prom: 8.7327 
----------------------------------------------------- 
step 16, time 0.016000, forces 7.950799 0.000262 -1.510072 
step 17, time 0.017000, maxvel 2.000000, total vol 181461, vol(u>maxvel) 0, cell count 0
bounding box (containing cells with vel>maxvel): xmin inf inf inf, xmax -inf -inf -infm 
bounding box of vehicle: xmin -12.2 -1.30003 -2.05998e-17, xmax 9.54098e-18 1.30033 3.6m 
yplus max: 47.3405, yplus min: 1.18185 
position of yplus max: -12.1108 -0.922731 2.25661 
yplus prom: 8.74191 
----------------------------------------------------- 
step 17, time 0.017000, forces 7.884493 0.000169 -1.511867 
step 18, time 0.018000, maxvel 2.000000, total vol 181461, vol(u>maxvel) 0, cell count 0
bounding box (containing cells with vel>maxvel): xmin inf inf inf, xmax -inf -inf -infm 
bounding box of vehicle: xmin -12.2 -1.30003 -2.05998e-17, xmax 9.54098e-18 1.30033 3.6m 
yplus max: 47.3605, yplus min: 1.27288 
position of yplus max: -12.1108 -0.922731 2.25661 
yplus prom: 8.7509 
----------------------------------------------------- 
step 18, time 0.018000, forces 7.825765 0.000039 -1.513493 
step 19, time 0.019000, maxvel 2.000000, total vol 181461, vol(u>maxvel) 0, cell count 0
bounding box (containing cells with vel>maxvel): xmin inf inf inf, xmax -inf -inf -infm 
bounding box of vehicle: xmin -12.2 -1.30003 -2.05998e-17, xmax 9.54098e-18 1.30033 3.6m 
yplus max: 47.3827, yplus min: 1.35667 
position of yplus max: -12.1108 -0.922731 2.25661 
yplus prom: 8.75969 
----------------------------------------------------- 
step 19, time 0.019000, forces 7.772668 -0.000053 -1.515274 
step 20, time 0.020000, maxvel 2.000000, total vol 181461, vol(u>maxvel) 0, cell count 0
bounding box (containing cells with vel>maxvel): xmin inf inf inf, xmax -inf -inf -infm 
bounding box of vehicle: xmin -12.2 -1.30003 -2.05998e-17, xmax 9.54098e-18 1.30033 3.6m 
yplus max: 47.4063, yplus min: 1.43455 
position of yplus max: -12.1108 -0.922731 2.25661 
yplus prom: 8.76829 
----------------------------------------------------- 
step 20, time 0.020000, forces 7.724541 -0.000119 -1.517137 
step 21, time 0.021000, maxvel 2.000000, total vol 181461, vol(u>maxvel) 0, cell count 0
bounding box (containing cells with vel>maxvel): xmin inf inf inf, xmax -inf -inf -infm 
bounding box of vehicle: xmin -12.2 -1.30003 -2.05998e-17, xmax 9.54098e-18 1.30033 3.6m 
yplus max: 47.4312, yplus min: 1.50749 
position of yplus max: -12.1108 -0.922731 2.25661 
yplus prom: 8.77673 
----------------------------------------------------- 
step 21, time 0.021000, forces 7.680707 -0.000129 -1.519096 
step 22, time 0.022000, maxvel 2.000000, total vol 181461, vol(u>maxvel) 0, cell count 0
bounding box (containing cells with vel>maxvel): xmin inf inf inf, xmax -inf -inf -infm 
bounding box of vehicle: xmin -12.2 -1.30003 -2.05998e-17, xmax 9.54098e-18 1.30033 3.6m 
yplus max: 47.4569, yplus min: 1.57624 
position of yplus max: -12.1108 -0.922731 2.25661 
yplus prom: 8.78502 
----------------------------------------------------- 
step 22, time 0.022000, forces 7.640628 -0.000232 -1.521081 
step 23, time 0.023000, maxvel 2.000000, total vol 181461, vol(u>maxvel) 0, cell count 0
bounding box (containing cells with vel>maxvel): xmin inf inf inf, xmax -inf -inf -infm 
bounding box of vehicle: xmin -12.2 -1.30003 -2.05998e-17, xmax 9.54098e-18 1.30033 3.6m 
yplus max: 47.4833, yplus min: 1.48599 
position of yplus max: -12.1108 -0.922731 2.25661 
yplus prom: 8.79317 
----------------------------------------------------- 
step 23, time 0.023000, forces 7.604009 -0.000228 -1.523171 
step 24, time 0.024000, maxvel 2.000000, total vol 181461, vol(u>maxvel) 0, cell count 0
bounding box (containing cells with vel>maxvel): xmin inf inf inf, xmax -inf -inf -infm 
bounding box of vehicle: xmin -12.2 -1.30003 -2.05998e-17, xmax 9.54098e-18 1.30033 3.6m 
yplus max: 47.5101, yplus min: 1.36462 
position of yplus max: -12.1108 -0.922731 2.25661 
yplus prom: 8.80119 
----------------------------------------------------- 
step 24, time 0.024000, forces 7.570390 -0.000264 -1.525380 
step 25, time 0.025000, maxvel 2.000000, total vol 181461, vol(u>maxvel) 0, cell count 0
bounding box (containing cells with vel>maxvel): xmin inf inf inf, xmax -inf -inf -infm 
bounding box of vehicle: xmin -12.2 -1.30003 -2.05998e-17, xmax 9.54098e-18 1.30033 3.6m 
yplus max: 47.5371, yplus min: 1.23288 
position of yplus max: -12.1108 -0.922731 2.25661 
yplus prom: 8.80907 
----------------------------------------------------- 
step 25, time 0.025000, forces 7.539598 -0.000287 -1.527547 
step 26, time 0.026000, maxvel 2.000000, total vol 181461, vol(u>maxvel) 0, cell count 0
bounding box (containing cells with vel>maxvel): xmin inf inf inf, xmax -inf -inf -infm 
bounding box of vehicle: xmin -12.2 -1.30003 -2.05998e-17, xmax 9.54098e-18 1.30033 3.6m 
yplus max: 47.5643, yplus min: 1.08712 
position of yplus max: -12.1108 -0.922731 2.25661 
yplus prom: 8.81684 
----------------------------------------------------- 
step 26, time 0.026000, forces 7.511288 -0.000285 -1.529838 
step 27, time 0.027000, maxvel 2.000000, total vol 181461, vol(u>maxvel) 0, cell count 0
bounding box (containing cells with vel>maxvel): xmin inf inf inf, xmax -inf -inf -infm 
bounding box of vehicle: xmin -12.2 -1.30003 -2.05998e-17, xmax 9.54098e-18 1.30033 3.6m 
yplus max: 47.5915, yplus min: 0.921128 
position of yplus max: -12.1108 -0.922731 2.25661 
yplus prom: 8.8245 
----------------------------------------------------- 
step 27, time 0.027000, forces 7.485333 -0.000233 -1.532176 
step 28, time 0.028000, maxvel 2.000000, total vol 181461, vol(u>maxvel) 0, cell count 0
bounding box (containing cells with vel>maxvel): xmin inf inf inf, xmax -inf -inf -infm 
bounding box of vehicle: xmin -12.2 -1.30003 -2.05998e-17, xmax 9.54098e-18 1.30033 3.6m 
yplus max: 47.6185, yplus min: 0.723249 
position of yplus max: -12.1108 -0.922731 2.25661 
yplus prom: 8.83204 
----------------------------------------------------- 
step 28, time 0.028000, forces 7.461453 -0.000261 -1.534437 
step 29, time 0.029000, maxvel 2.000000, total vol 181461, vol(u>maxvel) 0, cell count 0
bounding box (containing cells with vel>maxvel): xmin inf inf inf, xmax -inf -inf -infm 
bounding box of vehicle: xmin -12.2 -1.30003 -2.05998e-17, xmax 9.54098e-18 1.30033 3.6m 
yplus max: 47.6455, yplus min: 0.47716 
position of yplus max: -12.1108 -0.922731 2.25661 
yplus prom: 8.8395 
----------------------------------------------------- 
step 29, time 0.029000, forces 7.439587 -0.000205 -1.536604 
step 30, time 0.030000, maxvel 2.000000, total vol 181461, vol(u>maxvel) 0, cell count 0
bounding box (containing cells with vel>maxvel): xmin inf inf inf, xmax -inf -inf -infm 
bounding box of vehicle: xmin -12.2 -1.30003 -2.05998e-17, xmax 9.54098e-18 1.30033 3.6m 
yplus max: 47.6722, yplus min: 0.377853 
position of yplus max: -12.1108 -0.922731 2.25661 
yplus prom: 8.84689 
----------------------------------------------------- 
step 30, time 0.030000, forces 7.419391 -0.000224 -1.538614 
step 31, time 0.031000, maxvel 2.000000, total vol 181461, vol(u>maxvel) 0, cell count 0
bounding box (containing cells with vel>maxvel): xmin inf inf inf, xmax -inf -inf -infm 
bounding box of vehicle: xmin -12.2 -1.30003 -2.05998e-17, xmax 9.54098e-18 1.30033 3.6m 
yplus max: 47.6987, yplus min: 0.2432 
position of yplus max: -12.1108 -0.922731 2.25661 
yplus prom: 8.85432 
----------------------------------------------------- 
step 31, time 0.031000, forces 7.400845 -0.000211 -1.540720 
step 32, time 0.032000, maxvel 2.000000, total vol 181461, vol(u>maxvel) 0, cell count 0
bounding box (containing cells with vel>maxvel): xmin inf inf inf, xmax -inf -inf -infm 
bounding box of vehicle: xmin -12.2 -1.30003 -2.05998e-17, xmax 9.54098e-18 1.30033 3.6m 
yplus max: 47.7248, yplus min: 0.497541 
position of yplus max: -12.1108 -0.922731 2.25661 
yplus prom: 8.86178 
----------------------------------------------------- 
step 32, time 0.032000, forces 7.384104 -0.000112 -1.542883 
step 33, time 0.033000, maxvel 2.000000, total vol 181461, vol(u>maxvel) 0, cell count 0
bounding box (containing cells with vel>maxvel): xmin inf inf inf, xmax -inf -inf -infm 
bounding box of vehicle: xmin -12.2 -1.30003 -2.05998e-17, xmax 9.54098e-18 1.30033 3.6m 
yplus max: 47.7507, yplus min: 0.728925 
position of yplus max: -12.1108 -0.922731 2.25661 
yplus prom: 8.86917 
----------------------------------------------------- 
step 33, time 0.033000, forces 7.369039 -0.000113 -1.545120 
step 34, time 0.034000, maxvel 2.000000, total vol 181461, vol(u>maxvel) 0, cell count 0
bounding box (containing cells with vel>maxvel): xmin inf inf inf, xmax -inf -inf -infm 
bounding box of vehicle: xmin -12.2 -1.30003 -2.05998e-17, xmax 9.54098e-18 1.30033 3.6m 
yplus max: 47.7761, yplus min: 0.902734 
position of yplus max: -12.1108 -0.922731 2.25661 
yplus prom: 8.87646 
----------------------------------------------------- 
step 34, time 0.034000, forces 7.355230 -0.000068 -1.547378 
step 35, time 0.035000, maxvel 2.000000, total vol 181461, vol(u>maxvel) 0, cell count 0
bounding box (containing cells with vel>maxvel): xmin inf inf inf, xmax -inf -inf -infm 
bounding box of vehicle: xmin -12.2 -1.30003 -2.05998e-17, xmax 9.54098e-18 1.30033 3.6m 
yplus max: 47.8012, yplus min: 1.04786 
position of yplus max: -12.1108 -0.922731 2.25661 
yplus prom: 8.88364 
----------------------------------------------------- 
step 35, time 0.035000, forces 7.342691 -0.000096 -1.549397 
step 36, time 0.036000, maxvel 2.000000, total vol 181461, vol(u>maxvel) 0, cell count 0
bounding box (containing cells with vel>maxvel): xmin inf inf inf, xmax -inf -inf -infm 
bounding box of vehicle: xmin -12.2 -1.30003 -2.05998e-17, xmax 9.54098e-18 1.30033 3.6m 
yplus max: 47.8259, yplus min: 1.15755 
position of yplus max: -12.1108 -0.922731 2.25661 
yplus prom: 8.89071 
----------------------------------------------------- 
step 36, time 0.036000, forces 7.331011 0.000108 -1.552020 
step 37, time 0.037000, maxvel 2.000000, total vol 181461, vol(u>maxvel) 0, cell count 0
bounding box (containing cells with vel>maxvel): xmin inf inf inf, xmax -inf -inf -infm 
bounding box of vehicle: xmin -12.2 -1.30003 -2.05998e-17, xmax 9.54098e-18 1.30033 3.6m 
yplus max: 47.8502, yplus min: 1.02915 
position of yplus max: -12.1108 -0.922731 2.25661 
yplus prom: 8.89768 
----------------------------------------------------- 
step 37, time 0.037000, forces 7.320372 -0.000044 -1.554334 
step 38, time 0.038000, maxvel 2.000000, total vol 181461, vol(u>maxvel) 0, cell count 0
bounding box (containing cells with vel>maxvel): xmin inf inf inf, xmax -inf -inf -infm 
bounding box of vehicle: xmin -12.2 -1.30003 -2.05998e-17, xmax 9.54098e-18 1.30033 3.6m 
yplus max: 47.8741, yplus min: 0.924199 
position of yplus max: -12.1108 -0.922731 2.25661 
yplus prom: 8.90454 
----------------------------------------------------- 
step 38, time 0.038000, forces 7.310442 0.000111 -1.556641 
step 39, time 0.039000, maxvel 2.000000, total vol 181461, vol(u>maxvel) 0, cell count 0
bounding box (containing cells with vel>maxvel): xmin inf inf inf, xmax -inf -inf -infm 
bounding box of vehicle: xmin -12.2 -1.30003 -2.05998e-17, xmax 9.54098e-18 1.30033 3.6m 
yplus max: 47.8976, yplus min: 0.879943 
position of yplus max: -12.1108 -0.922731 2.25661 
yplus prom: 8.91129 
----------------------------------------------------- 
step 39, time 0.039000, forces 7.301350 0.000134 -1.558994 
step 40, time 0.040000, maxvel 2.000000, total vol 181461, vol(u>maxvel) 0, cell count 0
bounding box (containing cells with vel>maxvel): xmin inf inf inf, xmax -inf -inf -infm 
bounding box of vehicle: xmin -12.2 -1.30003 -2.05998e-17, xmax 9.54098e-18 1.30033 3.6m 
yplus max: 47.9206, yplus min: 0.919292 
position of yplus max: -12.1108 -0.922731 2.25661 
yplus prom: 8.91793 
----------------------------------------------------- 
step 40, time 0.040000, forces 7.292791 0.000216 -1.561403 
step 41, time 0.041000, maxvel 2.000000, total vol 181461, vol(u>maxvel) 0, cell count 0
bounding box (containing cells with vel>maxvel): xmin inf inf inf, xmax -inf -inf -infm 
bounding box of vehicle: xmin -12.2 -1.30003 -2.05998e-17, xmax 9.54098e-18 1.30033 3.6m 
yplus max: 47.9432, yplus min: 1.01403 
position of yplus max: -12.1108 -0.922731 2.25661 
yplus prom: 8.92447 
----------------------------------------------------- 
step 41, time 0.041000, forces 7.284882 0.000239 -1.563696 
step 42, time 0.042000, maxvel 2.000000, total vol 181461, vol(u>maxvel) 0, cell count 0
bounding box (containing cells with vel>maxvel): xmin inf inf inf, xmax -inf -inf -infm 
bounding box of vehicle: xmin -12.2 -1.30003 -2.05998e-17, xmax 9.54098e-18 1.30033 3.6m 
yplus max: 47.9654, yplus min: 0.999148 
position of yplus max: -12.1108 -0.922731 2.25661 
yplus prom: 8.9309 
----------------------------------------------------- 
step 42, time 0.042000, forces 7.277385 0.000348 -1.566067 
step 43, time 0.043000, maxvel 2.000000, total vol 181461, vol(u>maxvel) 0, cell count 0
bounding box (containing cells with vel>maxvel): xmin inf inf inf, xmax -inf -inf -infm 
bounding box of vehicle: xmin -12.2 -1.30003 -2.05998e-17, xmax 9.54098e-18 1.30033 3.6m 
yplus max: 47.9872, yplus min: 0.904543 
position of yplus max: -12.1108 -0.922731 2.25661 
yplus prom: 8.9372 
----------------------------------------------------- 
step 43, time 0.043000, forces 7.270558 0.000351 -1.568437 
step 44, time 0.044000, maxvel 2.000000, total vol 181461, vol(u>maxvel) 0, cell count 0
bounding box (containing cells with vel>maxvel): xmin inf inf inf, xmax -inf -inf -infm 
bounding box of vehicle: xmin -12.2 -1.30003 -2.05998e-17, xmax 9.54098e-18 1.30033 3.6m 
yplus max: 48.0085, yplus min: 0.798551 
position of yplus max: -12.1108 -0.922731 2.25661 
yplus prom: 8.94338 
----------------------------------------------------- 
step 44, time 0.044000, forces 7.263941 0.000424 -1.570787 
step 45, time 0.045000, maxvel 2.000000, total vol 181461, vol(u>maxvel) 0, cell count 0
bounding box (containing cells with vel>maxvel): xmin inf inf inf, xmax -inf -inf -infm 
bounding box of vehicle: xmin -12.2 -1.30003 -2.05998e-17, xmax 9.54098e-18 1.30033 3.6m 
yplus max: 48.0295, yplus min: 0.677825 
position of yplus max: -12.1108 -0.922731 2.25661 
yplus prom: 8.94943 
----------------------------------------------------- 
step 45, time 0.045000, forces 7.257777 0.000475 -1.573143 
step 46, time 0.046000, maxvel 2.000000, total vol 181461, vol(u>maxvel) 0, cell count 0
bounding box (containing cells with vel>maxvel): xmin inf inf inf, xmax -inf -inf -infm 
bounding box of vehicle: xmin -12.2 -1.30003 -2.05998e-17, xmax 9.54098e-18 1.30033 3.6m 
yplus max: 48.05, yplus min: 0.541053 
position of yplus max: -12.1108 -0.922731 2.25661 
yplus prom: 8.95536 
----------------------------------------------------- 
step 46, time 0.046000, forces 7.251879 0.000536 -1.575484 
step 47, time 0.047000, maxvel 2.000000, total vol 181461, vol(u>maxvel) 0, cell count 0
bounding box (containing cells with vel>maxvel): xmin inf inf inf, xmax -inf -inf -infm 
bounding box of vehicle: xmin -12.2 -1.30003 -2.05998e-17, xmax 9.54098e-18 1.30033 3.6m 
yplus max: 48.0701, yplus min: 0.427201 
position of yplus max: -12.1108 -0.922731 2.25661 
yplus prom: 8.96118 
----------------------------------------------------- 
step 47, time 0.047000, forces 7.246250 0.000592 -1.577856 
step 48, time 0.048000, maxvel 2.000000, total vol 181461, vol(u>maxvel) 0, cell count 0
bounding box (containing cells with vel>maxvel): xmin inf inf inf, xmax -inf -inf -infm 
bounding box of vehicle: xmin -12.2 -1.30003 -2.05998e-17, xmax 9.54098e-18 1.30033 3.6m 
yplus max: 48.0898, yplus min: 0.48793 
position of yplus max: -12.1108 -0.922731 2.25661 
yplus prom: 8.96688 
----------------------------------------------------- 
step 48, time 0.048000, forces 7.240880 0.000635 -1.580189 
step 49, time 0.049000, maxvel 2.000000, total vol 181461, vol(u>maxvel) 0, cell count 0
bounding box (containing cells with vel>maxvel): xmin inf inf inf, xmax -inf -inf -infm 
bounding box of vehicle: xmin -12.2 -1.30003 -2.05998e-17, xmax 9.54098e-18 1.30033 3.6m 
yplus max: 48.1091, yplus min: 0.63096 
position of yplus max: -12.1108 -0.922731 2.25661 
yplus prom: 8.97246 
----------------------------------------------------- 
step 49, time 0.049000, forces 7.235671 0.000697 -1.582488 
step 50, time 0.050000, maxvel 2.000000, total vol 181461, vol(u>maxvel) 0, cell count 0
bounding box (containing cells with vel>maxvel): xmin inf inf inf, xmax -inf -inf -infm 
bounding box of vehicle: xmin -12.2 -1.30003 -2.05998e-17, xmax 9.54098e-18 1.30033 3.6m 
yplus max: 48.128, yplus min: 0.764355 
position of yplus max: -12.1108 -0.922731 2.25661 
yplus prom: 8.97793 
----------------------------------------------------- 
step 50, time 0.050000, forces 7.230549 0.000851 -1.584911 
step 51, time 0.051000, maxvel 2.000000, total vol 181461, vol(u>maxvel) 0, cell count 0
bounding box (containing cells with vel>maxvel): xmin inf inf inf, xmax -inf -inf -infm 
bounding box of vehicle: xmin -12.2 -1.30003 -2.05998e-17, xmax 9.54098e-18 1.30033 3.6m 
yplus max: 48.1465, yplus min: 0.882931 
position of yplus max: -12.1108 -0.922731 2.25661 
yplus prom: 8.98329 
----------------------------------------------------- 
step 51, time 0.051000, forces 7.225837 0.000771 -1.587224 
step 52, time 0.052000, maxvel 2.000000, total vol 181461, vol(u>maxvel) 0, cell count 0
bounding box (containing cells with vel>maxvel): xmin inf inf inf, xmax -inf -inf -infm 
bounding box of vehicle: xmin -12.2 -1.30003 -2.05998e-17, xmax 9.54098e-18 1.30033 3.6m 
yplus max: 48.1647, yplus min: 0.989872 
position of yplus max: -12.1108 -0.922731 2.25661 
yplus prom: 8.98854 
----------------------------------------------------- 
step 52, time 0.052000, forces 7.221080 0.000873 -1.589516 
step 53, time 0.053000, maxvel 2.000000, total vol 181461, vol(u>maxvel) 0, cell count 0
bounding box (containing cells with vel>maxvel): xmin inf inf inf, xmax -inf -inf -infm 
bounding box of vehicle: xmin -12.2 -1.30003 -2.05998e-17, xmax 9.54098e-18 1.30033 3.6m 
yplus max: 48.1824, yplus min: 1.08792 
position of yplus max: -12.1108 -0.922731 2.25661 
yplus prom: 8.99367 
----------------------------------------------------- 
step 53, time 0.053000, forces 7.216509 0.000916 -1.591844 
step 54, time 0.054000, maxvel 2.000000, total vol 181461, vol(u>maxvel) 0, cell count 0
bounding box (containing cells with vel>maxvel): xmin inf inf inf, xmax -inf -inf -infm 
bounding box of vehicle: xmin -12.2 -1.30003 -2.05998e-17, xmax 9.54098e-18 1.30033 3.6m 
yplus max: 48.1998, yplus min: 1.17899 
position of yplus max: -12.1108 -0.922731 2.25661 
yplus prom: 8.9987 
----------------------------------------------------- 
step 54, time 0.054000, forces 7.212024 0.000990 -1.594144 
step 55, time 0.055000, maxvel 2.000000, total vol 181461, vol(u>maxvel) 0, cell count 0
bounding box (containing cells with vel>maxvel): xmin inf inf inf, xmax -inf -inf -infm 
bounding box of vehicle: xmin -12.2 -1.30003 -2.05998e-17, xmax 9.54098e-18 1.30033 3.6m 
yplus max: 48.2169, yplus min: 1.26446 
position of yplus max: -12.1108 -0.922731 2.25661 
yplus prom: 9.00363 
----------------------------------------------------- 
step 55, time 0.055000, forces 7.207683 0.001004 -1.596404 
step 56, time 0.056000, maxvel 2.000000, total vol 181461, vol(u>maxvel) 0, cell count 0
bounding box (containing cells with vel>maxvel): xmin inf inf inf, xmax -inf -inf -infm 
bounding box of vehicle: xmin -12.2 -1.30003 -2.05998e-17, xmax 9.54098e-18 1.30033 3.6m 
yplus max: 48.2335, yplus min: 1.28289 
position of yplus max: -12.1108 -0.922731 2.25661 
yplus prom: 9.00845 
----------------------------------------------------- 
step 56, time 0.056000, forces 7.203453 0.001102 -1.598524 
step 57, time 0.057000, maxvel 2.000000, total vol 181461, vol(u>maxvel) 0, cell count 0
bounding box (containing cells with vel>maxvel): xmin inf inf inf, xmax -inf -inf -infm 
bounding box of vehicle: xmin -12.2 -1.30003 -2.05998e-17, xmax 9.54098e-18 1.30033 3.6m 
yplus max: 48.2499, yplus min: 1.23043 
position of yplus max: -12.1108 -0.922731 2.25661 
yplus prom: 9.01317 
----------------------------------------------------- 
step 57, time 0.057000, forces 7.199378 0.001108 -1.600592 
step 58, time 0.058000, maxvel 2.000000, total vol 181461, vol(u>maxvel) 0, cell count 0
bounding box (containing cells with vel>maxvel): xmin inf inf inf, xmax -inf -inf -infm 
bounding box of vehicle: xmin -12.2 -1.30003 -2.05998e-17, xmax 9.54098e-18 1.30033 3.6m 
yplus max: 48.2658, yplus min: 1.17478 
position of yplus max: -12.1108 -0.922731 2.25661 
yplus prom: 9.01779 
----------------------------------------------------- 
step 58, time 0.058000, forces 7.195471 0.001156 -1.602579 
step 59, time 0.059000, maxvel 2.000000, total vol 181461, vol(u>maxvel) 0, cell count 0
bounding box (containing cells with vel>maxvel): xmin inf inf inf, xmax -inf -inf -infm 
bounding box of vehicle: xmin -12.2 -1.30003 -2.05998e-17, xmax 9.54098e-18 1.30033 3.6m 
yplus max: 48.2815, yplus min: 1.1155 
position of yplus max: -12.1108 -0.922731 2.25661 
yplus prom: 9.02231 
----------------------------------------------------- 
step 59, time 0.059000, forces 7.191742 0.001251 -1.604574 
step 60, time 0.060000, maxvel 2.000000, total vol 181461, vol(u>maxvel) 0, cell count 0
bounding box (containing cells with vel>maxvel): xmin inf inf inf, xmax -inf -inf -infm 
bounding box of vehicle: xmin -12.2 -1.30003 -2.05998e-17, xmax 9.54098e-18 1.30033 3.6m 
yplus max: 48.2968, yplus min: 1.05205 
position of yplus max: -12.1108 -0.922731 2.25661 
yplus prom: 9.02674 
----------------------------------------------------- 
step 60, time 0.060000, forces 7.188389 0.001378 -1.606594 
step 61, time 0.061000, maxvel 2.000000, total vol 181461, vol(u>maxvel) 0, cell count 0
bounding box (containing cells with vel>maxvel): xmin inf inf inf, xmax -inf -inf -infm 
bounding box of vehicle: xmin -12.2 -1.30003 -2.05998e-17, xmax 9.54098e-18 1.30033 3.6m 
yplus max: 48.3117, yplus min: 0.983675 
position of yplus max: -12.1108 -0.922731 2.25661 
yplus prom: 9.03107 
----------------------------------------------------- 
step 61, time 0.061000, forces 7.185381 0.001290 -1.608602 
step 62, time 0.062000, maxvel 2.000000, total vol 181461, vol(u>maxvel) 0, cell count 0
bounding box (containing cells with vel>maxvel): xmin inf inf inf, xmax -inf -inf -infm 
bounding box of vehicle: xmin -12.2 -1.30003 -2.05998e-17, xmax 9.54098e-18 1.30033 3.6m 
yplus max: 48.3264, yplus min: 0.909381 
position of yplus max: -12.1108 -0.922731 2.25661 
yplus prom: 9.03532 
----------------------------------------------------- 
step 62, time 0.062000, forces 7.182522 0.001337 -1.610674 
step 63, time 0.063000, maxvel 2.000000, total vol 181461, vol(u>maxvel) 0, cell count 0
bounding box (containing cells with vel>maxvel): xmin inf inf inf, xmax -inf -inf -infm 
bounding box of vehicle: xmin -12.2 -1.30003 -2.05998e-17, xmax 9.54098e-18 1.30033 3.6m 
yplus max: 48.3407, yplus min: 0.827741 
position of yplus max: -12.1108 -0.922731 2.25661 
yplus prom: 9.03948 
----------------------------------------------------- 
step 63, time 0.063000, forces 7.179704 0.001513 -1.612773 
step 64, time 0.064000, maxvel 2.000000, total vol 181461, vol(u>maxvel) 0, cell count 0
bounding box (containing cells with vel>maxvel): xmin inf inf inf, xmax -inf -inf -infm 
bounding box of vehicle: xmin -12.2 -1.30003 -2.05998e-17, xmax 9.54098e-18 1.30033 3.6m 
yplus max: 48.3547, yplus min: 0.736646 
position of yplus max: -12.1108 -0.922731 2.25661 
yplus prom: 9.04355 
----------------------------------------------------- 
step 64, time 0.064000, forces 7.177199 0.001378 -1.614714 
step 65, time 0.065000, maxvel 2.000000, total vol 181461, vol(u>maxvel) 0, cell count 0
bounding box (containing cells with vel>maxvel): xmin inf inf inf, xmax -inf -inf -infm 
bounding box of vehicle: xmin -12.2 -1.30003 -2.05998e-17, xmax 9.54098e-18 1.30033 3.6m 
yplus max: 48.3684, yplus min: 0.632908 
position of yplus max: -12.1108 -0.922731 2.25661 
yplus prom: 9.04753 
----------------------------------------------------- 
step 65, time 0.065000, forces 7.174574 0.001544 -1.616801 
step 66, time 0.066000, maxvel 2.000000, total vol 181461, vol(u>maxvel) 0, cell count 0
bounding box (containing cells with vel>maxvel): xmin inf inf inf, xmax -inf -inf -infm 
bounding box of vehicle: xmin -12.2 -1.30003 -2.05998e-17, xmax 9.54098e-18 1.30033 3.6m 
yplus max: 48.3819, yplus min: 0.512271 
position of yplus max: -12.1108 -0.922731 2.25661 
yplus prom: 9.05143 
----------------------------------------------------- 
step 66, time 0.066000, forces 7.172122 0.001589 -1.618836 
step 67, time 0.067000, maxvel 2.000000, total vol 181461, vol(u>maxvel) 0, cell count 0
bounding box (containing cells with vel>maxvel): xmin inf inf inf, xmax -inf -inf -infm 
bounding box of vehicle: xmin -12.2 -1.30003 -2.05998e-17, xmax 9.54098e-18 1.30033 3.6m 
yplus max: 48.395, yplus min: 0.381164 
position of yplus max: -12.1108 -0.922731 2.25661 
yplus prom: 9.05525 
----------------------------------------------------- 
step 67, time 0.067000, forces 7.169845 0.001601 -1.620796 
step 68, time 0.068000, maxvel 2.000000, total vol 181461, vol(u>maxvel) 0, cell count 0
bounding box (containing cells with vel>maxvel): xmin inf inf inf, xmax -inf -inf -infm 
bounding box of vehicle: xmin -12.2 -1.30003 -2.05998e-17, xmax 9.54098e-18 1.30033 3.6m 
yplus max: 48.4078, yplus min: 0.369134 
position of yplus max: -12.1108 -0.922731 2.25661 
yplus prom: 9.059 
----------------------------------------------------- 
step 68, time 0.068000, forces 7.167424 0.001676 -1.622879 
step 69, time 0.069000, maxvel 2.000000, total vol 181461, vol(u>maxvel) 0, cell count 0
bounding box (containing cells with vel>maxvel): xmin inf inf inf, xmax -inf -inf -infm 
bounding box of vehicle: xmin -12.2 -1.30003 -2.05998e-17, xmax 9.54098e-18 1.30033 3.6m 
yplus max: 48.4204, yplus min: 0.500148 
position of yplus max: -12.1108 -0.922731 2.25661 
yplus prom: 9.06267 
----------------------------------------------------- 
step 69, time 0.069000, forces 7.165194 0.001733 -1.624892 
step 70, time 0.070000, maxvel 2.000000, total vol 181461, vol(u>maxvel) 0, cell count 0
bounding box (containing cells with vel>maxvel): xmin inf inf inf, xmax -inf -inf -infm 
bounding box of vehicle: xmin -12.2 -1.30003 -2.05998e-17, xmax 9.54098e-18 1.30033 3.6m 
yplus max: 48.4326, yplus min: 0.626864 
position of yplus max: -12.1108 -0.922731 2.25661 
yplus prom: 9.06626 
----------------------------------------------------- 
step 70, time 0.070000, forces 7.162991 0.001777 -1.626893 
step 71, time 0.071000, maxvel 2.000000, total vol 181461, vol(u>maxvel) 0, cell count 0
bounding box (containing cells with vel>maxvel): xmin inf inf inf, xmax -inf -inf -infm 
bounding box of vehicle: xmin -12.2 -1.30003 -2.05998e-17, xmax 9.54098e-18 1.30033 3.6m 
yplus max: 48.4446, yplus min: 0.737184 
position of yplus max: -12.1108 -0.922731 2.25661 
yplus prom: 9.06978 
----------------------------------------------------- 
step 71, time 0.071000, forces 7.160846 0.001822 -1.628887 
step 72, time 0.072000, maxvel 2.000000, total vol 181461, vol(u>maxvel) 0, cell count 0
bounding box (containing cells with vel>maxvel): xmin inf inf inf, xmax -inf -inf -infm 
bounding box of vehicle: xmin -12.2 -1.30003 -2.05998e-17, xmax 9.54098e-18 1.30033 3.6m 
yplus max: 48.4564, yplus min: 0.835161 
position of yplus max: -12.1108 -0.922731 2.25661 
yplus prom: 9.07323 
----------------------------------------------------- 
step 72, time 0.072000, forces 7.158742 0.001888 -1.630869 
step 73, time 0.073000, maxvel 2.000000, total vol 181461, vol(u>maxvel) 0, cell count 0
bounding box (containing cells with vel>maxvel): xmin inf inf inf, xmax -inf -inf -infm 
bounding box of vehicle: xmin -12.2 -1.30003 -2.05998e-17, xmax 9.54098e-18 1.30033 3.6m 
yplus max: 48.4678, yplus min: 0.833657 
position of yplus max: -12.1108 -0.922731 2.25661 
yplus prom: 9.07661 
----------------------------------------------------- 
step 73, time 0.073000, forces 7.156666 0.001915 -1.632838 
step 74, time 0.074000, maxvel 2.000000, total vol 181461, vol(u>maxvel) 0, cell count 0
bounding box (containing cells with vel>maxvel): xmin inf inf inf, xmax -inf -inf -infm 
bounding box of vehicle: xmin -12.2 -1.30003 -2.05998e-17, xmax 9.54098e-18 1.30033 3.6m 
yplus max: 48.4791, yplus min: 0.757484 
position of yplus max: -12.1108 -0.922731 2.25661 
yplus prom: 9.07993 
----------------------------------------------------- 
step 74, time 0.074000, forces 7.154640 0.001975 -1.634770 
step 75, time 0.075000, maxvel 2.000000, total vol 181461, vol(u>maxvel) 0, cell count 0
bounding box (containing cells with vel>maxvel): xmin inf inf inf, xmax -inf -inf -infm 
bounding box of vehicle: xmin -12.2 -1.30003 -2.05998e-17, xmax 9.54098e-18 1.30033 3.6m 
yplus max: 48.49, yplus min: 0.654372 
position of yplus max: -12.1108 -0.922731 2.25661 
yplus prom: 9.08318 
----------------------------------------------------- 
step 75, time 0.075000, forces 7.152678 0.001993 -1.636603 
step 76, time 0.076000, maxvel 2.000000, total vol 181461, vol(u>maxvel) 0, cell count 0
bounding box (containing cells with vel>maxvel): xmin inf inf inf, xmax -inf -inf -infm 
bounding box of vehicle: xmin -12.2 -1.30003 -2.05998e-17, xmax 9.54098e-18 1.30033 3.6m 
yplus max: 48.5007, yplus min: 0.544472 
position of yplus max: -12.1108 -0.922731 2.25661 
yplus prom: 9.08637 
----------------------------------------------------- 
step 76, time 0.076000, forces 7.150773 0.002058 -1.638353 
step 77, time 0.077000, maxvel 2.000000, total vol 181461, vol(u>maxvel) 0, cell count 0
bounding box (containing cells with vel>maxvel): xmin inf inf inf, xmax -inf -inf -infm 
bounding box of vehicle: xmin -12.2 -1.30003 -2.05998e-17, xmax 9.54098e-18 1.30033 3.6m 
yplus max: 48.5112, yplus min: 0.530407 
position of yplus max: -12.1108 -0.922731 2.25661 
yplus prom: 9.08952 
----------------------------------------------------- 
step 77, time 0.077000, forces 7.148924 0.002088 -1.640061 
step 78, time 0.078000, maxvel 2.000000, total vol 181461, vol(u>maxvel) 0, cell count 0
bounding box (containing cells with vel>maxvel): xmin inf inf inf, xmax -inf -inf -infm 
bounding box of vehicle: xmin -12.2 -1.30003 -2.05998e-17, xmax 9.54098e-18 1.30033 3.6m 
yplus max: 48.5215, yplus min: 0.634249 
position of yplus max: -12.1108 -0.922731 2.25661 
yplus prom: 9.09263 
----------------------------------------------------- 
step 78, time 0.078000, forces 7.147276 0.002143 -1.641724 
step 79, time 0.079000, maxvel 2.000000, total vol 181461, vol(u>maxvel) 0, cell count 0
bounding box (containing cells with vel>maxvel): xmin inf inf inf, xmax -inf -inf -infm 
bounding box of vehicle: xmin -12.2 -1.30003 -2.05998e-17, xmax 9.54098e-18 1.30033 3.6m 
yplus max: 48.5315, yplus min: 0.717413 
position of yplus max: -12.1108 -0.922731 2.25661 
yplus prom: 9.09568 
----------------------------------------------------- 
step 79, time 0.079000, forces 7.145882 0.002174 -1.643423 
step 80, time 0.080000, maxvel 2.000000, total vol 181461, vol(u>maxvel) 0, cell count 0
bounding box (containing cells with vel>maxvel): xmin inf inf inf, xmax -inf -inf -infm 
bounding box of vehicle: xmin -12.2 -1.30003 -2.05998e-17, xmax 9.54098e-18 1.30033 3.6m 
yplus max: 48.5412, yplus min: 0.793105 
position of yplus max: -12.1108 -0.922731 2.25661 
yplus prom: 9.09869 
----------------------------------------------------- 
step 80, time 0.080000, forces 7.144637 0.002206 -1.645105 
step 81, time 0.081000, maxvel 2.000000, total vol 181461, vol(u>maxvel) 0, cell count 0
bounding box (containing cells with vel>maxvel): xmin inf inf inf, xmax -inf -inf -infm 
bounding box of vehicle: xmin -12.2 -1.30003 -2.05998e-17, xmax 9.54098e-18 1.30033 3.6m 
yplus max: 48.5508, yplus min: 0.868455 
position of yplus max: -12.1108 -0.922731 2.25661 
yplus prom: 9.10164 
----------------------------------------------------- 
step 81, time 0.081000, forces 7.143646 0.002212 -1.646853 
step 82, time 0.082000, maxvel 2.000000, total vol 181461, vol(u>maxvel) 0, cell count 0
bounding box (containing cells with vel>maxvel): xmin inf inf inf, xmax -inf -inf -infm 
bounding box of vehicle: xmin -12.2 -1.30003 -2.05998e-17, xmax 9.54098e-18 1.30033 3.6m 
yplus max: 48.5601, yplus min: 0.938298 
position of yplus max: -12.1108 -0.922731 2.25661 
yplus prom: 9.10453 
----------------------------------------------------- 
step 82, time 0.082000, forces 7.142614 0.002286 -1.648598 
step 83, time 0.083000, maxvel 2.000000, total vol 181461, vol(u>maxvel) 0, cell count 0
bounding box (containing cells with vel>maxvel): xmin inf inf inf, xmax -inf -inf -infm 
bounding box of vehicle: xmin -12.2 -1.30003 -2.05998e-17, xmax 9.54098e-18 1.30033 3.6m 
yplus max: 48.5692, yplus min: 1.00752 
position of yplus max: -12.1108 -0.922731 2.25661 
yplus prom: 9.10736 
----------------------------------------------------- 
step 83, time 0.083000, forces 7.141728 0.002326 -1.650352 
step 84, time 0.084000, maxvel 2.000000, total vol 181461, vol(u>maxvel) 0, cell count 0
bounding box (containing cells with vel>maxvel): xmin inf inf inf, xmax -inf -inf -infm 
bounding box of vehicle: xmin -12.2 -1.30003 -2.05998e-17, xmax 9.54098e-18 1.30033 3.6m 
yplus max: 48.5781, yplus min: 1.0749 
position of yplus max: -12.1108 -0.922731 2.25661 
yplus prom: 9.11014 
----------------------------------------------------- 
step 84, time 0.084000, forces 7.140987 0.002324 -1.652077 
step 85, time 0.085000, maxvel 2.000000, total vol 181461, vol(u>maxvel) 0, cell count 0
bounding box (containing cells with vel>maxvel): xmin inf inf inf, xmax -inf -inf -infm 
bounding box of vehicle: xmin -12.2 -1.30003 -2.05998e-17, xmax 9.54098e-18 1.30033 3.6m 
yplus max: 48.5868, yplus min: 1.14 
position of yplus max: -12.1108 -0.922731 2.25661 
yplus prom: 9.11286 
----------------------------------------------------- 
step 85, time 0.085000, forces 7.140097 0.002395 -1.653825 
step 86, time 0.086000, maxvel 2.000000, total vol 181461, vol(u>maxvel) 0, cell count 0
bounding box (containing cells with vel>maxvel): xmin inf inf inf, xmax -inf -inf -infm 
bounding box of vehicle: xmin -12.2 -1.30003 -2.05998e-17, xmax 9.54098e-18 1.30033 3.6m 
yplus max: 48.5953, yplus min: 1.20273 
position of yplus max: -12.1108 -0.922731 2.25661 
yplus prom: 9.11553 
----------------------------------------------------- 
step 86, time 0.086000, forces 7.139350 0.002425 -1.655523 
step 87, time 0.087000, maxvel 2.000000, total vol 181461, vol(u>maxvel) 0, cell count 0
bounding box (containing cells with vel>maxvel): xmin inf inf inf, xmax -inf -inf -infm 
bounding box of vehicle: xmin -12.2 -1.30003 -2.05998e-17, xmax 9.54098e-18 1.30033 3.6m 
yplus max: 48.6036, yplus min: 1.26317 
position of yplus max: -12.1108 -0.922731 2.25661 
yplus prom: 9.11815 
----------------------------------------------------- 
step 87, time 0.087000, forces 7.138595 0.002455 -1.657250 
step 88, time 0.088000, maxvel 2.000000, total vol 181461, vol(u>maxvel) 0, cell count 0
bounding box (containing cells with vel>maxvel): xmin inf inf inf, xmax -inf -inf -infm 
bounding box of vehicle: xmin -12.2 -1.30003 -2.05998e-17, xmax 9.54098e-18 1.30033 3.6m 
yplus max: 48.6116, yplus min: 1.32145 
position of yplus max: -12.1108 -0.922731 2.25661 
yplus prom: 9.12071 
----------------------------------------------------- 
step 88, time 0.088000, forces 7.137864 0.002484 -1.658952 
step 89, time 0.089000, maxvel 2.000000, total vol 181461, vol(u>maxvel) 0, cell count 0
bounding box (containing cells with vel>maxvel): xmin inf inf inf, xmax -inf -inf -infm 
bounding box of vehicle: xmin -12.2 -1.30003 -2.05998e-17, xmax 9.54098e-18 1.30033 3.6m 
yplus max: 48.6195, yplus min: 1.37772 
position of yplus max: -12.1108 -0.922731 2.25661 
yplus prom: 9.12323 
----------------------------------------------------- 
step 89, time 0.089000, forces 7.137139 0.002523 -1.660630 
step 90, time 0.090000, maxvel 2.000000, total vol 181461, vol(u>maxvel) 0, cell count 0
bounding box (containing cells with vel>maxvel): xmin inf inf inf, xmax -inf -inf -infm 
bounding box of vehicle: xmin -12.2 -1.30003 -2.05998e-17, xmax 9.54098e-18 1.30033 3.6m 
yplus max: 48.6272, yplus min: 1.43214 
position of yplus max: -12.1108 -0.922731 2.25661 
yplus prom: 9.12569 
----------------------------------------------------- 
step 90, time 0.090000, forces 7.136424 0.002585 -1.662316 
step 91, time 0.091000, maxvel 2.000000, total vol 181461, vol(u>maxvel) 0, cell count 0
bounding box (containing cells with vel>maxvel): xmin inf inf inf, xmax -inf -inf -infm 
bounding box of vehicle: xmin -12.2 -1.30003 -2.05998e-17, xmax 9.54098e-18 1.30033 3.6m 
yplus max: 48.6348, yplus min: 1.46391 
position of yplus max: -12.1108 -0.922731 2.25661 
yplus prom: 9.12809 
----------------------------------------------------- 
step 91, time 0.091000, forces 7.135735 0.002592 -1.663982 
step 92, time 0.092000, maxvel 2.000000, total vol 181461, vol(u>maxvel) 0, cell count 0
bounding box (containing cells with vel>maxvel): xmin inf inf inf, xmax -inf -inf -infm 
bounding box of vehicle: xmin -12.2 -1.30003 -2.05998e-17, xmax 9.54098e-18 1.30033 3.6m 
yplus max: 48.6421, yplus min: 1.45895 
position of yplus max: -12.1108 -0.922731 2.25661 
yplus prom: 9.13045 
----------------------------------------------------- 
step 92, time 0.092000, forces 7.135059 0.002624 -1.665654 
step 93, time 0.093000, maxvel 2.000000, total vol 181461, vol(u>maxvel) 0, cell count 0
bounding box (containing cells with vel>maxvel): xmin inf inf inf, xmax -inf -inf -infm 
bounding box of vehicle: xmin -12.2 -1.30003 -2.05998e-17, xmax 9.54098e-18 1.30033 3.6m 
yplus max: 48.6493, yplus min: 1.46546 
position of yplus max: -12.1108 -0.922731 2.25661 
yplus prom: 9.13276 
----------------------------------------------------- 
step 93, time 0.093000, forces 7.134224 0.002652 -1.667379 
step 94, time 0.094000, maxvel 2.000000, total vol 181461, vol(u>maxvel) 0, cell count 0
bounding box (containing cells with vel>maxvel): xmin inf inf inf, xmax -inf -inf -infm 
bounding box of vehicle: xmin -12.2 -1.30003 -2.05998e-17, xmax 9.54098e-18 1.30033 3.6m 
yplus max: 48.6562, yplus min: 1.48287 
position of yplus max: -12.1108 -0.922731 2.25661 
yplus prom: 9.13502 
----------------------------------------------------- 
step 94, time 0.094000, forces 7.133701 0.002671 -1.668936 
step 95, time 0.095000, maxvel 2.000000, total vol 181461, vol(u>maxvel) 0, cell count 0
bounding box (containing cells with vel>maxvel): xmin inf inf inf, xmax -inf -inf -infm 
bounding box of vehicle: xmin -12.2 -1.30003 -2.05998e-17, xmax 9.54098e-18 1.30033 3.6m 
yplus max: 48.663, yplus min: 1.50996 
position of yplus max: -12.1108 -0.922731 2.25661 
yplus prom: 9.13724 
----------------------------------------------------- 
step 95, time 0.095000, forces 7.133052 0.002725 -1.670519 
step 96, time 0.096000, maxvel 2.000000, total vol 181461, vol(u>maxvel) 0, cell count 0
bounding box (containing cells with vel>maxvel): xmin inf inf inf, xmax -inf -inf -infm 
bounding box of vehicle: xmin -12.2 -1.30003 -2.05998e-17, xmax 9.54098e-18 1.30033 3.6m 
yplus max: 48.6697, yplus min: 1.54515 
position of yplus max: -12.1108 -0.922731 2.25661 
yplus prom: 9.1394 
----------------------------------------------------- 
step 96, time 0.096000, forces 7.132445 0.002739 -1.672014 
step 97, time 0.097000, maxvel 2.000000, total vol 181461, vol(u>maxvel) 0, cell count 0
bounding box (containing cells with vel>maxvel): xmin inf inf inf, xmax -inf -inf -infm 
bounding box of vehicle: xmin -12.2 -1.30003 -2.05998e-17, xmax 9.54098e-18 1.30033 3.6m 
yplus max: 48.6762, yplus min: 1.55514 
position of yplus max: -12.1108 -0.922731 2.25661 
yplus prom: 9.14152 
----------------------------------------------------- 
step 97, time 0.097000, forces 7.131835 0.002768 -1.673443 
step 98, time 0.098000, maxvel 2.000000, total vol 181461, vol(u>maxvel) 0, cell count 0
bounding box (containing cells with vel>maxvel): xmin inf inf inf, xmax -inf -inf -infm 
bounding box of vehicle: xmin -12.2 -1.30003 -2.05998e-17, xmax 9.54098e-18 1.30033 3.6m 
yplus max: 48.6825, yplus min: 1.55315 
position of yplus max: -12.1108 -0.922731 2.25661 
yplus prom: 9.1436 
----------------------------------------------------- 
step 98, time 0.098000, forces 7.131354 0.002840 -1.674834 
step 99, time 0.099000, maxvel 2.000000, total vol 181461, vol(u>maxvel) 0, cell count 0
bounding box (containing cells with vel>maxvel): xmin inf inf inf, xmax -inf -inf -infm 
bounding box of vehicle: xmin -12.2 -1.30003 -2.05998e-17, xmax 9.54098e-18 1.30033 3.6m 
yplus max: 48.6887, yplus min: 1.55114 
position of yplus max: -12.1108 -0.922731 2.25661 
yplus prom: 9.14563 
----------------------------------------------------- 
step 99, time 0.099000, forces 7.131027 0.002814 -1.676158 
step 100, time 0.100000, maxvel 2.000000, total vol 181461, vol(u>maxvel) 0, cell count 0
bounding box (containing cells with vel>maxvel): xmin inf inf inf, xmax -inf -inf -infm 
bounding box of vehicle: xmin -12.2 -1.30003 -2.05998e-17, xmax 9.54098e-18 1.30033 3.6m 
yplus max: 48.6947, yplus min: 1.54914 
position of yplus max: -12.1108 -0.922731 2.25661 
yplus prom: 9.14761 
----------------------------------------------------- 
step 100, time 0.100000, forces 7.130869 0.002805 -1.677559 
step 101, time 0.101000, maxvel 2.000000, total vol 181461, vol(u>maxvel) 0, cell count 0
bounding box (containing cells with vel>maxvel): xmin inf inf inf, xmax -inf -inf -infm 
bounding box of vehicle: xmin -12.2 -1.30003 -2.05998e-17, xmax 9.54098e-18 1.30033 3.6m 
yplus max: 48.7005, yplus min: 1.54714 
position of yplus max: -12.1108 -0.922731 2.25661 
yplus prom: 9.14956 
----------------------------------------------------- 
step 101, time 0.101000, forces 7.130795 0.002908 -1.678991 
step 102, time 0.102000, maxvel 2.000000, total vol 181461, vol(u>maxvel) 0, cell count 0
bounding box (containing cells with vel>maxvel): xmin inf inf inf, xmax -inf -inf -infm 
bounding box of vehicle: xmin -12.2 -1.30003 -2.05998e-17, xmax 9.54098e-18 1.30033 3.6m 
yplus max: 48.7062, yplus min: 1.54513 
position of yplus max: -12.1108 -0.922731 2.25661 
yplus prom: 9.15146 
----------------------------------------------------- 
step 102, time 0.102000, forces 7.130827 0.002887 -1.680398 
step 103, time 0.103000, maxvel 2.000000, total vol 181461, vol(u>maxvel) 0, cell count 0
bounding box (containing cells with vel>maxvel): xmin inf inf inf, xmax -inf -inf -infm 
bounding box of vehicle: xmin -12.2 -1.30003 -2.05998e-17, xmax 9.54098e-18 1.30033 3.6m 
yplus max: 48.7118, yplus min: 1.54312 
position of yplus max: -12.1108 -0.922731 2.25661 
yplus prom: 9.15331 
----------------------------------------------------- 
step 103, time 0.103000, forces 7.130931 0.002919 -1.681847 
step 104, time 0.104000, maxvel 2.000000, total vol 181461, vol(u>maxvel) 0, cell count 0
bounding box (containing cells with vel>maxvel): xmin inf inf inf, xmax -inf -inf -infm 
bounding box of vehicle: xmin -12.2 -1.30003 -2.05998e-17, xmax 9.54098e-18 1.30033 3.6m 
yplus max: 48.7172, yplus min: 1.54111 
position of yplus max: -12.1108 -0.922731 2.25661 
yplus prom: 9.15513 
----------------------------------------------------- 
step 104, time 0.104000, forces 7.131038 0.002928 -1.683295 
step 105, time 0.105000, maxvel 2.000000, total vol 181461, vol(u>maxvel) 0, cell count 0
bounding box (containing cells with vel>maxvel): xmin inf inf inf, xmax -inf -inf -infm 
bounding box of vehicle: xmin -12.2 -1.30003 -2.05998e-17, xmax 9.54098e-18 1.30033 3.6m 
yplus max: 48.7225, yplus min: 1.5391 
position of yplus max: -12.1108 -0.922731 2.25661 
yplus prom: 9.1569 
----------------------------------------------------- 
step 105, time 0.105000, forces 7.131164 0.002961 -1.684678 
step 106, time 0.106000, maxvel 2.000000, total vol 181461, vol(u>maxvel) 0, cell count 0
bounding box (containing cells with vel>maxvel): xmin inf inf inf, xmax -inf -inf -infm 
bounding box of vehicle: xmin -12.2 -1.30003 -2.05998e-17, xmax 9.54098e-18 1.30033 3.6m 
yplus max: 48.7276, yplus min: 1.53709 
position of yplus max: -12.1108 -0.922731 2.25661 
yplus prom: 9.15864 
----------------------------------------------------- 
step 106, time 0.106000, forces 7.131321 0.002996 -1.686110 
step 107, time 0.107000, maxvel 2.000000, total vol 181461, vol(u>maxvel) 0, cell count 0
bounding box (containing cells with vel>maxvel): xmin inf inf inf, xmax -inf -inf -infm 
bounding box of vehicle: xmin -12.2 -1.30003 -2.05998e-17, xmax 9.54098e-18 1.30033 3.6m 
yplus max: 48.7327, yplus min: 1.53508 
position of yplus max: -12.1108 -0.922731 2.25661 
yplus prom: 9.16033 
----------------------------------------------------- 
step 107, time 0.107000, forces 7.131434 0.003007 -1.687525 
step 108, time 0.108000, maxvel 2.000000, total vol 181461, vol(u>maxvel) 0, cell count 0
bounding box (containing cells with vel>maxvel): xmin inf inf inf, xmax -inf -inf -infm 
bounding box of vehicle: xmin -12.2 -1.30003 -2.05998e-17, xmax 9.54098e-18 1.30033 3.6m 
yplus max: 48.7375, yplus min: 1.53306 
position of yplus max: -12.1108 -0.922731 2.25661 
yplus prom: 9.16199 
----------------------------------------------------- 
step 108, time 0.108000, forces 7.131615 0.003061 -1.688899 
step 109, time 0.109000, maxvel 2.000000, total vol 181461, vol(u>maxvel) 0, cell count 0
bounding box (containing cells with vel>maxvel): xmin inf inf inf, xmax -inf -inf -infm 
bounding box of vehicle: xmin -12.2 -1.30003 -2.05998e-17, xmax 9.54098e-18 1.30033 3.6m 
yplus max: 48.7423, yplus min: 1.53104 
position of yplus max: -12.1108 -0.922731 2.25661 
yplus prom: 9.1636 
----------------------------------------------------- 
step 109, time 0.109000, forces 7.131732 0.003081 -1.690340 
step 110, time 0.110000, maxvel 2.000000, total vol 181461, vol(u>maxvel) 0, cell count 0
bounding box (containing cells with vel>maxvel): xmin inf inf inf, xmax -inf -inf -infm 
bounding box of vehicle: xmin -12.2 -1.30003 -2.05998e-17, xmax 9.54098e-18 1.30033 3.6m 
yplus max: 48.7469, yplus min: 1.52902 
position of yplus max: -12.1108 -0.922731 2.25661 
yplus prom: 9.16518 
----------------------------------------------------- 
step 110, time 0.110000, forces 7.131835 0.003109 -1.691709 
step 111, time 0.111000, maxvel 2.000000, total vol 181461, vol(u>maxvel) 0, cell count 0
bounding box (containing cells with vel>maxvel): xmin inf inf inf, xmax -inf -inf -infm 
bounding box of vehicle: xmin -12.2 -1.30003 -2.05998e-17, xmax 9.54098e-18 1.30033 3.6m 
yplus max: 48.7514, yplus min: 1.51861 
position of yplus max: -12.1108 -0.922731 2.25661 
yplus prom: 9.16672 
----------------------------------------------------- 
step 111, time 0.111000, forces 7.131955 0.003097 -1.693110 
step 112, time 0.112000, maxvel 2.000000, total vol 181461, vol(u>maxvel) 0, cell count 0
bounding box (containing cells with vel>maxvel): xmin inf inf inf, xmax -inf -inf -infm 
bounding box of vehicle: xmin -12.2 -1.30003 -2.05998e-17, xmax 9.54098e-18 1.30033 3.6m 
yplus max: 48.7558, yplus min: 1.48597 
position of yplus max: -12.1108 -0.922731 2.25661 
yplus prom: 9.16823 
----------------------------------------------------- 
step 112, time 0.112000, forces 7.132037 0.003185 -1.694489 
step 113, time 0.113000, maxvel 2.000000, total vol 181461, vol(u>maxvel) 0, cell count 0
bounding box (containing cells with vel>maxvel): xmin inf inf inf, xmax -inf -inf -infm 
bounding box of vehicle: xmin -12.2 -1.30003 -2.05998e-17, xmax 9.54098e-18 1.30033 3.6m 
yplus max: 48.7601, yplus min: 1.45434 
position of yplus max: -12.1108 -0.922731 2.25661 
yplus prom: 9.16969 
----------------------------------------------------- 
step 113, time 0.113000, forces 7.132149 0.003128 -1.695837 
step 114, time 0.114000, maxvel 2.000000, total vol 181461, vol(u>maxvel) 0, cell count 0
bounding box (containing cells with vel>maxvel): xmin inf inf inf, xmax -inf -inf -infm 
bounding box of vehicle: xmin -12.2 -1.30003 -2.05998e-17, xmax 9.54098e-18 1.30033 3.6m 
yplus max: 48.7642, yplus min: 1.42402 
position of yplus max: -12.1108 -0.922731 2.25661 
yplus prom: 9.17113 
----------------------------------------------------- 
step 114, time 0.114000, forces 7.132229 0.003120 -1.697161 
step 115, time 0.115000, maxvel 2.000000, total vol 181461, vol(u>maxvel) 0, cell count 0
bounding box (containing cells with vel>maxvel): xmin inf inf inf, xmax -inf -inf -infm 
bounding box of vehicle: xmin -12.2 -1.30003 -2.05998e-17, xmax 9.54098e-18 1.30033 3.6m 
yplus max: 48.7683, yplus min: 1.39534 
position of yplus max: -12.1108 -0.922731 2.25661 
yplus prom: 9.17252 
----------------------------------------------------- 
step 115, time 0.115000, forces 7.132263 0.003178 -1.698539 
step 116, time 0.116000, maxvel 2.000000, total vol 181461, vol(u>maxvel) 0, cell count 0
bounding box (containing cells with vel>maxvel): xmin inf inf inf, xmax -inf -inf -infm 
bounding box of vehicle: xmin -12.2 -1.30003 -2.05998e-17, xmax 9.54098e-18 1.30033 3.6m 
yplus max: 48.7722, yplus min: 1.3687 
position of yplus max: -12.1108 -0.922731 2.25661 
yplus prom: 9.17388 
----------------------------------------------------- 
step 116, time 0.116000, forces 7.132334 0.003137 -1.699922 
step 117, time 0.117000, maxvel 2.000000, total vol 181461, vol(u>maxvel) 0, cell count 0
bounding box (containing cells with vel>maxvel): xmin inf inf inf, xmax -inf -inf -infm 
bounding box of vehicle: xmin -12.2 -1.30003 -2.05998e-17, xmax 9.54098e-18 1.30033 3.6m 
yplus max: 48.776, yplus min: 1.34451 
position of yplus max: -12.1108 -0.922731 2.25661 
yplus prom: 9.17521 
----------------------------------------------------- 
step 117, time 0.117000, forces 7.132319 0.003245 -1.701204 
step 118, time 0.118000, maxvel 2.000000, total vol 181461, vol(u>maxvel) 0, cell count 0
bounding box (containing cells with vel>maxvel): xmin inf inf inf, xmax -inf -inf -infm 
bounding box of vehicle: xmin -12.2 -1.30003 -2.05998e-17, xmax 9.54098e-18 1.30033 3.6m 
yplus max: 48.7798, yplus min: 1.32321 
position of yplus max: -12.1108 -0.922731 2.25661 
yplus prom: 9.17651 
----------------------------------------------------- 
step 118, time 0.118000, forces 7.132440 0.003263 -1.702485 
step 119, time 0.119000, maxvel 2.000000, total vol 181461, vol(u>maxvel) 0, cell count 0
bounding box (containing cells with vel>maxvel): xmin inf inf inf, xmax -inf -inf -infm 
bounding box of vehicle: xmin -12.2 -1.30003 -2.05998e-17, xmax 9.54098e-18 1.30033 3.6m 
yplus max: 48.7834, yplus min: 1.30525 
position of yplus max: -12.1108 -0.922731 2.25661 
yplus prom: 9.17777 
----------------------------------------------------- 
step 119, time 0.119000, forces 7.132332 0.003195 -1.703811 
step 120, time 0.120000, maxvel 2.000000, total vol 181461, vol(u>maxvel) 0, cell count 0
bounding box (containing cells with vel>maxvel): xmin inf inf inf, xmax -inf -inf -infm 
bounding box of vehicle: xmin -12.2 -1.30003 -2.05998e-17, xmax 9.54098e-18 1.30033 3.6m 
yplus max: 48.7869, yplus min: 1.29105 
position of yplus max: -12.1108 -0.922731 2.25661 
yplus prom: 9.179 
----------------------------------------------------- 
step 120, time 0.120000, forces 7.132218 0.003199 -1.705399 
step 121, time 0.121000, maxvel 2.000000, total vol 181461, vol(u>maxvel) 0, cell count 0
bounding box (containing cells with vel>maxvel): xmin inf inf inf, xmax -inf -inf -infm 
bounding box of vehicle: xmin -12.2 -1.30003 -2.05998e-17, xmax 9.54098e-18 1.30033 3.6m 
yplus max: 48.7903, yplus min: 1.28098 
position of yplus max: -12.1108 -0.922731 2.25661 
yplus prom: 9.18019 
----------------------------------------------------- 
step 121, time 0.121000, forces 7.132247 0.003342 -1.706457 
step 122, time 0.122000, maxvel 2.000000, total vol 181461, vol(u>maxvel) 0, cell count 0
bounding box (containing cells with vel>maxvel): xmin inf inf inf, xmax -inf -inf -infm 
bounding box of vehicle: xmin -12.2 -1.30003 -2.05998e-17, xmax 9.54098e-18 1.30033 3.6m 
yplus max: 48.7936, yplus min: 1.27532 
position of yplus max: -12.1108 -0.922731 2.25661 
yplus prom: 9.18136 
----------------------------------------------------- 
step 122, time 0.122000, forces 7.132230 0.003331 -1.707488 
step 123, time 0.123000, maxvel 2.000000, total vol 181461, vol(u>maxvel) 0, cell count 0
bounding box (containing cells with vel>maxvel): xmin inf inf inf, xmax -inf -inf -infm 
bounding box of vehicle: xmin -12.2 -1.30003 -2.05998e-17, xmax 9.54098e-18 1.30033 3.6m 
yplus max: 48.7969, yplus min: 1.27422 
position of yplus max: -12.1108 -0.922731 2.25661 
yplus prom: 9.18249 
----------------------------------------------------- 
step 123, time 0.123000, forces 7.132359 0.003337 -1.708656 
step 124, time 0.124000, maxvel 2.000000, total vol 181461, vol(u>maxvel) 0, cell count 0
bounding box (containing cells with vel>maxvel): xmin inf inf inf, xmax -inf -inf -infm 
bounding box of vehicle: xmin -12.2 -1.30003 -2.05998e-17, xmax 9.54098e-18 1.30033 3.6m 
yplus max: 48.8, yplus min: 1.2777 
position of yplus max: -12.1108 -0.922731 2.25661 
yplus prom: 9.1836 
----------------------------------------------------- 
step 124, time 0.124000, forces 7.132818 0.003344 -1.709578 
step 125, time 0.125000, maxvel 2.000000, total vol 181461, vol(u>maxvel) 0, cell count 0
bounding box (containing cells with vel>maxvel): xmin inf inf inf, xmax -inf -inf -infm 
bounding box of vehicle: xmin -12.2 -1.30003 -2.05998e-17, xmax 9.54098e-18 1.30033 3.6m 
yplus max: 48.8031, yplus min: 1.28562 
position of yplus max: -12.1108 -0.922731 2.25661 
yplus prom: 9.18467 
----------------------------------------------------- 
step 125, time 0.125000, forces 7.132663 0.003338 -1.710936 
step 126, time 0.126000, maxvel 2.000000, total vol 181461, vol(u>maxvel) 0, cell count 0
bounding box (containing cells with vel>maxvel): xmin inf inf inf, xmax -inf -inf -infm 
bounding box of vehicle: xmin -12.2 -1.30003 -2.05998e-17, xmax 9.54098e-18 1.30033 3.6m 
yplus max: 48.806, yplus min: 1.29772 
position of yplus max: -12.1108 -0.922731 2.25661 
yplus prom: 9.18572 
----------------------------------------------------- 
step 126, time 0.126000, forces 7.133188 0.003228 -1.711946 
step 127, time 0.127000, maxvel 2.000000, total vol 181461, vol(u>maxvel) 0, cell count 0
bounding box (containing cells with vel>maxvel): xmin inf inf inf, xmax -inf -inf -infm 
bounding box of vehicle: xmin -12.2 -1.30003 -2.05998e-17, xmax 9.54098e-18 1.30033 3.6m 
yplus max: 48.8089, yplus min: 1.31365 
position of yplus max: -12.1108 -0.922731 2.25661 
yplus prom: 9.18674 
----------------------------------------------------- 
step 127, time 0.127000, forces 7.133722 0.003436 -1.712968 
step 128, time 0.128000, maxvel 2.000000, total vol 181461, vol(u>maxvel) 0, cell count 0
bounding box (containing cells with vel>maxvel): xmin inf inf inf, xmax -inf -inf -infm 
bounding box of vehicle: xmin -12.2 -1.30003 -2.05998e-17, xmax 9.54098e-18 1.30033 3.6m 
yplus max: 48.8117, yplus min: 1.33298 
position of yplus max: -12.1108 -0.922731 2.25661 
yplus prom: 9.18773 
----------------------------------------------------- 
step 128, time 0.128000, forces 7.133869 0.003363 -1.714394 
step 129, time 0.129000, maxvel 2.000000, total vol 181461, vol(u>maxvel) 0, cell count 0
bounding box (containing cells with vel>maxvel): xmin inf inf inf, xmax -inf -inf -infm 
bounding box of vehicle: xmin -12.2 -1.30003 -2.05998e-17, xmax 9.54098e-18 1.30033 3.6m 
yplus max: 48.8144, yplus min: 1.29341 
position of yplus max: -12.1108 -0.922731 2.25661 
yplus prom: 9.18869 
----------------------------------------------------- 
step 129, time 0.129000, forces 7.134538 0.003391 -1.715345 
step 130, time 0.130000, maxvel 2.000000, total vol 181461, vol(u>maxvel) 0, cell count 0
bounding box (containing cells with vel>maxvel): xmin inf inf inf, xmax -inf -inf -infm 
bounding box of vehicle: xmin -12.2 -1.30003 -2.05998e-17, xmax 9.54098e-18 1.30033 3.6m 
yplus max: 48.8171, yplus min: 1.2067 
position of yplus max: -12.1108 -0.922731 2.25661 
yplus prom: 9.18962 
----------------------------------------------------- 
step 130, time 0.130000, forces 7.135002 0.003337 -1.716648 
step 131, time 0.131000, maxvel 2.000000, total vol 181461, vol(u>maxvel) 0, cell count 0
bounding box (containing cells with vel>maxvel): xmin inf inf inf, xmax -inf -inf -infm 
bounding box of vehicle: xmin -12.2 -1.30003 -2.05998e-17, xmax 9.54098e-18 1.30033 3.6m 
yplus max: 48.8196, yplus min: 1.11387 
position of yplus max: -12.1108 -0.922731 2.25661 
yplus prom: 9.19053 
----------------------------------------------------- 
step 131, time 0.131000, forces 7.135458 0.003419 -1.717747 
step 132, time 0.132000, maxvel 2.000000, total vol 181461, vol(u>maxvel) 0, cell count 0
bounding box (containing cells with vel>maxvel): xmin inf inf inf, xmax -inf -inf -infm 
bounding box of vehicle: xmin -12.2 -1.30003 -2.05998e-17, xmax 9.54098e-18 1.30033 3.6m 
yplus max: 48.8221, yplus min: 1.01372 
position of yplus max: -12.1108 -0.922731 2.25661 
yplus prom: 9.19142 
----------------------------------------------------- 
step 132, time 0.132000, forces 7.135923 0.003408 -1.718867 
step 133, time 0.133000, maxvel 2.000000, total vol 181461, vol(u>maxvel) 0, cell count 0
bounding box (containing cells with vel>maxvel): xmin inf inf inf, xmax -inf -inf -infm 
bounding box of vehicle: xmin -12.2 -1.30003 -2.05998e-17, xmax 9.54098e-18 1.30033 3.6m 
yplus max: 48.8245, yplus min: 0.904869 
position of yplus max: -12.1108 -0.922731 2.25661 
yplus prom: 9.19227 
----------------------------------------------------- 
step 133, time 0.133000, forces 7.136381 0.003416 -1.720034 
step 134, time 0.134000, maxvel 2.000000, total vol 181461, vol(u>maxvel) 0, cell count 0
bounding box (containing cells with vel>maxvel): xmin inf inf inf, xmax -inf -inf -infm 
bounding box of vehicle: xmin -12.2 -1.30003 -2.05998e-17, xmax 9.54098e-18 1.30033 3.6m 
yplus max: 48.8269, yplus min: 0.786535 
position of yplus max: -12.1108 -0.922731 2.25661 
yplus prom: 9.19311 
----------------------------------------------------- 
step 134, time 0.134000, forces 7.136783 0.003515 -1.721190 
step 135, time 0.135000, maxvel 2.000000, total vol 181461, vol(u>maxvel) 0, cell count 0
bounding box (containing cells with vel>maxvel): xmin inf inf inf, xmax -inf -inf -infm 
bounding box of vehicle: xmin -12.2 -1.30003 -2.05998e-17, xmax 9.54098e-18 1.30033 3.6m 
yplus max: 48.8291, yplus min: 0.662851 
position of yplus max: -12.1108 -0.922731 2.25661 
yplus prom: 9.19392 
----------------------------------------------------- 
step 135, time 0.135000, forces 7.137234 0.003472 -1.722336 
step 136, time 0.136000, maxvel 2.000000, total vol 181461, vol(u>maxvel) 0, cell count 0
bounding box (containing cells with vel>maxvel): xmin inf inf inf, xmax -inf -inf -infm 
bounding box of vehicle: xmin -12.2 -1.30003 -2.05998e-17, xmax 9.54098e-18 1.30033 3.6m 
yplus max: 48.8313, yplus min: 0.564507 
position of yplus max: -12.1108 -0.922731 2.25661 
yplus prom: 9.19471 
----------------------------------------------------- 
step 136, time 0.136000, forces 7.137631 0.003441 -1.723456 
step 137, time 0.137000, maxvel 2.000000, total vol 181461, vol(u>maxvel) 0, cell count 0
bounding box (containing cells with vel>maxvel): xmin inf inf inf, xmax -inf -inf -infm 
bounding box of vehicle: xmin -12.2 -1.30003 -2.05998e-17, xmax 9.54098e-18 1.30033 3.6m 
yplus max: 48.8335, yplus min: 0.573674 
position of yplus max: -12.1108 -0.922731 2.25661 
yplus prom: 9.19549 
----------------------------------------------------- 
step 137, time 0.137000, forces 7.137989 0.003534 -1.724621 
step 138, time 0.138000, maxvel 2.000000, total vol 181461, vol(u>maxvel) 0, cell count 0
bounding box (containing cells with vel>maxvel): xmin inf inf inf, xmax -inf -inf -infm 
bounding box of vehicle: xmin -12.2 -1.30003 -2.05998e-17, xmax 9.54098e-18 1.30033 3.6m 
yplus max: 48.8356, yplus min: 0.679699 
position of yplus max: -12.1108 -0.922731 2.25661 
yplus prom: 9.19626 
----------------------------------------------------- 
step 138, time 0.138000, forces 7.138360 0.003443 -1.725683 
step 139, time 0.139000, maxvel 2.000000, total vol 181461, vol(u>maxvel) 0, cell count 0
bounding box (containing cells with vel>maxvel): xmin inf inf inf, xmax -inf -inf -infm 
bounding box of vehicle: xmin -12.2 -1.30003 -2.05998e-17, xmax 9.54098e-18 1.30033 3.6m 
yplus max: 48.8376, yplus min: 0.803606 
position of yplus max: -12.1108 -0.922731 2.25661 
yplus prom: 9.19702 
----------------------------------------------------- 
step 139, time 0.139000, forces 7.138668 0.003454 -1.726891 
step 140, time 0.140000, maxvel 2.000000, total vol 181461, vol(u>maxvel) 0, cell count 0
bounding box (containing cells with vel>maxvel): xmin inf inf inf, xmax -inf -inf -infm 
bounding box of vehicle: xmin -12.2 -1.30003 -2.05998e-17, xmax 9.54098e-18 1.30033 3.6m 
yplus max: 48.8616, yplus min: 0.85011 
position of yplus max: -11.9739 -1.28774 2.16477 
yplus prom: 9.19775 
----------------------------------------------------- 
step 140, time 0.140000, forces 7.138936 0.003508 -1.727933 
step 141, time 0.141000, maxvel 2.000000, total vol 181461, vol(u>maxvel) 0, cell count 0
bounding box (containing cells with vel>maxvel): xmin inf inf inf, xmax -inf -inf -infm 
bounding box of vehicle: xmin -12.2 -1.30003 -2.05998e-17, xmax 9.54098e-18 1.30033 3.6m 
yplus max: 48.8878, yplus min: 0.839317 
position of yplus max: -11.9739 -1.28774 2.16477 
yplus prom: 9.19847 
----------------------------------------------------- 
step 141, time 0.141000, forces 7.139189 0.003528 -1.729074 
step 142, time 0.142000, maxvel 2.000000, total vol 181461, vol(u>maxvel) 0, cell count 0
bounding box (containing cells with vel>maxvel): xmin inf inf inf, xmax -inf -inf -infm 
bounding box of vehicle: xmin -12.2 -1.30003 -2.05998e-17, xmax 9.54098e-18 1.30033 3.6m 
yplus max: 48.914, yplus min: 0.845452 
position of yplus max: -11.9739 -1.28774 2.16477 
yplus prom: 9.19917 
----------------------------------------------------- 
step 142, time 0.142000, forces 7.139421 0.003515 -1.730171 
step 143, time 0.143000, maxvel 2.000000, total vol 181461, vol(u>maxvel) 0, cell count 0
bounding box (containing cells with vel>maxvel): xmin inf inf inf, xmax -inf -inf -infm 
bounding box of vehicle: xmin -12.2 -1.30003 -2.05998e-17, xmax 9.54098e-18 1.30033 3.6m 
yplus max: 48.94, yplus min: 0.867485 
position of yplus max: -11.9739 -1.28774 2.16477 
yplus prom: 9.19984 
----------------------------------------------------- 
step 143, time 0.143000, forces 7.139629 0.003527 -1.731260 
step 144, time 0.144000, maxvel 2.000000, total vol 181461, vol(u>maxvel) 0, cell count 0
bounding box (containing cells with vel>maxvel): xmin inf inf inf, xmax -inf -inf -infm 
bounding box of vehicle: xmin -12.2 -1.30003 -2.05998e-17, xmax 9.54098e-18 1.30033 3.6m 
yplus max: 48.9659, yplus min: 0.902156 
position of yplus max: -11.9739 -1.28774 2.16477 
yplus prom: 9.2005 
----------------------------------------------------- 
step 144, time 0.144000, forces 7.139796 0.003568 -1.732372 
step 145, time 0.145000, maxvel 2.000000, total vol 181461, vol(u>maxvel) 0, cell count 0
bounding box (containing cells with vel>maxvel): xmin inf inf inf, xmax -inf -inf -infm 
bounding box of vehicle: xmin -12.2 -1.30003 -2.05998e-17, xmax 9.54098e-18 1.30033 3.6m 
yplus max: 48.9918, yplus min: 0.939592 
position of yplus max: -11.9739 -1.28774 2.16477 
yplus prom: 9.20113 
----------------------------------------------------- 
step 145, time 0.145000, forces 7.139995 0.003525 -1.733450 
step 146, time 0.146000, maxvel 2.000000, total vol 181461, vol(u>maxvel) 0, cell count 0
bounding box (containing cells with vel>maxvel): xmin inf inf inf, xmax -inf -inf -infm 
bounding box of vehicle: xmin -12.2 -1.30003 -2.05998e-17, xmax 9.54098e-18 1.30033 3.6m 
yplus max: 49.0175, yplus min: 0.879476 
position of yplus max: -11.9739 -1.28774 2.16477 
yplus prom: 9.20175 
----------------------------------------------------- 
step 146, time 0.146000, forces 7.140105 0.003589 -1.734513 
step 147, time 0.147000, maxvel 2.000000, total vol 181461, vol(u>maxvel) 0, cell count 0
bounding box (containing cells with vel>maxvel): xmin inf inf inf, xmax -inf -inf -infm 
bounding box of vehicle: xmin -12.2 -1.30003 -2.05998e-17, xmax 9.54098e-18 1.30033 3.6m 
yplus max: 49.0432, yplus min: 0.831087 
position of yplus max: -11.9739 -1.28774 2.16477 
yplus prom: 9.20235 
----------------------------------------------------- 
step 147, time 0.147000, forces 7.140243 0.003591 -1.735596 
step 148, time 0.148000, maxvel 2.000000, total vol 181461, vol(u>maxvel) 0, cell count 0
bounding box (containing cells with vel>maxvel): xmin inf inf inf, xmax -inf -inf -infm 
bounding box of vehicle: xmin -12.2 -1.30003 -2.05998e-17, xmax 9.54098e-18 1.30033 3.6m 
yplus max: 49.0688, yplus min: 0.803053 
position of yplus max: -11.9739 -1.28774 2.16477 
yplus prom: 9.20293 
----------------------------------------------------- 
step 148, time 0.148000, forces 7.140342 0.003599 -1.736703 
step 149, time 0.149000, maxvel 2.000000, total vol 181461, vol(u>maxvel) 0, cell count 0
bounding box (containing cells with vel>maxvel): xmin inf inf inf, xmax -inf -inf -infm 
bounding box of vehicle: xmin -12.2 -1.30003 -2.05998e-17, xmax 9.54098e-18 1.30033 3.6m 
yplus max: 49.0942, yplus min: 0.802522 
position of yplus max: -11.9739 -1.28774 2.16477 
yplus prom: 9.20349 
----------------------------------------------------- 
step 149, time 0.149000, forces 7.140469 0.003554 -1.737742 
step 150, time 0.150000, maxvel 2.000000, total vol 181461, vol(u>maxvel) 0, cell count 0
bounding box (containing cells with vel>maxvel): xmin inf inf inf, xmax -inf -inf -infm 
bounding box of vehicle: xmin -12.2 -1.30003 -2.05998e-17, xmax 9.54098e-18 1.30033 3.6m 
yplus max: 49.1196, yplus min: 0.829679 
position of yplus max: -11.9739 -1.28774 2.16477 
yplus prom: 9.20403 
----------------------------------------------------- 
step 150, time 0.150000, forces 7.140530 0.003578 -1.738798 
step 151, time 0.151000, maxvel 2.000000, total vol 181461, vol(u>maxvel) 0, cell count 0
bounding box (containing cells with vel>maxvel): xmin inf inf inf, xmax -inf -inf -infm 
bounding box of vehicle: xmin -12.2 -1.30003 -2.05998e-17, xmax 9.54098e-18 1.30033 3.6m 
yplus max: 49.1449, yplus min: 0.877582 
position of yplus max: -11.9739 -1.28774 2.16477 
yplus prom: 9.20455 
----------------------------------------------------- 
step 151, time 0.151000, forces 7.140529 0.003647 -1.739788 
step 152, time 0.152000, maxvel 2.000000, total vol 181461, vol(u>maxvel) 0, cell count 0
bounding box (containing cells with vel>maxvel): xmin inf inf inf, xmax -inf -inf -infm 
bounding box of vehicle: xmin -12.2 -1.30003 -2.05998e-17, xmax 9.54098e-18 1.30033 3.6m 
yplus max: 49.1701, yplus min: 0.937555 
position of yplus max: -11.9739 -1.28774 2.16477 
yplus prom: 9.20506 
----------------------------------------------------- 
step 152, time 0.152000, forces 7.140712 0.003570 -1.740757 
step 153, time 0.153000, maxvel 2.000000, total vol 181461, vol(u>maxvel) 0, cell count 0
bounding box (containing cells with vel>maxvel): xmin inf inf inf, xmax -inf -inf -infm 
bounding box of vehicle: xmin -12.2 -1.30003 -2.05998e-17, xmax 9.54098e-18 1.30033 3.6m 
yplus max: 49.1952, yplus min: 1.00309 
position of yplus max: -11.9739 -1.28774 2.16477 
yplus prom: 9.20555 
----------------------------------------------------- 
step 153, time 0.153000, forces 7.140798 0.003661 -1.741708 
step 154, time 0.154000, maxvel 2.000000, total vol 181461, vol(u>maxvel) 0, cell count 0
bounding box (containing cells with vel>maxvel): xmin inf inf inf, xmax -inf -inf -infm 
bounding box of vehicle: xmin -12.2 -1.30003 -2.05998e-17, xmax 9.54098e-18 1.30033 3.6m 
yplus max: 49.2201, yplus min: 1.07032 
position of yplus max: -11.9739 -1.28774 2.16477 
yplus prom: 9.20601 
----------------------------------------------------- 
step 154, time 0.154000, forces 7.141061 0.003586 -1.742629 
step 155, time 0.155000, maxvel 2.000000, total vol 181461, vol(u>maxvel) 0, cell count 0
bounding box (containing cells with vel>maxvel): xmin inf inf inf, xmax -inf -inf -infm 
bounding box of vehicle: xmin -12.2 -1.30003 -2.05998e-17, xmax 9.54098e-18 1.30033 3.6m 
yplus max: 49.245, yplus min: 1.13722 
position of yplus max: -11.9739 -1.28774 2.16477 
yplus prom: 9.20646 
----------------------------------------------------- 
step 155, time 0.155000, forces 7.141247 0.003682 -1.743541 
step 156, time 0.156000, maxvel 2.000000, total vol 181461, vol(u>maxvel) 0, cell count 0
bounding box (containing cells with vel>maxvel): xmin inf inf inf, xmax -inf -inf -infm 
bounding box of vehicle: xmin -12.2 -1.30003 -2.05998e-17, xmax 9.54098e-18 1.30033 3.6m 
yplus max: 49.2698, yplus min: 1.15282 
position of yplus max: -11.9739 -1.28774 2.16477 
yplus prom: 9.2069 
----------------------------------------------------- 
step 156, time 0.156000, forces 7.141614 0.003630 -1.744451 
step 157, time 0.157000, maxvel 2.000000, total vol 181461, vol(u>maxvel) 0, cell count 0
bounding box (containing cells with vel>maxvel): xmin inf inf inf, xmax -inf -inf -infm 
bounding box of vehicle: xmin -12.2 -1.30003 -2.05998e-17, xmax 9.54098e-18 1.30033 3.6m 
yplus max: 49.2944, yplus min: 1.08513 
position of yplus max: -11.9739 -1.28774 2.16477 
yplus prom: 9.20731 
----------------------------------------------------- 
step 157, time 0.157000, forces 7.141965 0.003671 -1.745397 
step 158, time 0.158000, maxvel 2.000000, total vol 181461, vol(u>maxvel) 0, cell count 0
bounding box (containing cells with vel>maxvel): xmin inf inf inf, xmax -inf -inf -infm 
bounding box of vehicle: xmin -12.2 -1.30003 -2.05998e-17, xmax 9.54098e-18 1.30033 3.6m 
yplus max: 49.319, yplus min: 1.01275 
position of yplus max: -11.9739 -1.28774 2.16477 
yplus prom: 9.2077 
----------------------------------------------------- 
step 158, time 0.158000, forces 7.142411 0.003653 -1.746344 
step 159, time 0.159000, maxvel 2.000000, total vol 181461, vol(u>maxvel) 0, cell count 0
bounding box (containing cells with vel>maxvel): xmin inf inf inf, xmax -inf -inf -infm 
bounding box of vehicle: xmin -12.2 -1.30003 -2.05998e-17, xmax 9.54098e-18 1.30033 3.6m 
yplus max: 49.3434, yplus min: 0.935975 
[...]
bounding box (containing cells with vel>maxvel): xmin -12.1373 -1.31284 0.37808, xmax -12.0501 1.31199 1.94611m 
bounding box of vehicle: xmin -12.2 -1.30003 -2.05998e-17, xmax 9.54098e-18 1.30033 3.6m 
yplus max: 52.9292, yplus min: 0.34057 
position of yplus max: -11.9739 -1.28774 2.16477 
yplus prom: 8.30357 
----------------------------------------------------- 
step 3772, time 3.772000, forces 5.229966 0.003033 -1.710077 
step 3773, time 3.773000, maxvel 2.000000, total vol 181461, vol(u>maxvel) 0.0052189, cell count 533
bounding box (containing cells with vel>maxvel): xmin -12.1373 -1.31284 0.37808, xmax -12.0501 1.31199 1.94611m 
bounding box of vehicle: xmin -12.2 -1.30003 -2.05998e-17, xmax 9.54098e-18 1.30033 3.6m 
yplus max: 52.9292, yplus min: 0.342338 
position of yplus max: -11.9739 -1.28774 2.16477 
yplus prom: 8.30345 
----------------------------------------------------- 
step 3773, time 3.773000, forces 5.229267 0.002716 -1.708861 
step 3774, time 3.774000, maxvel 2.000000, total vol 181461, vol(u>maxvel) 0.0052189, cell count 533
bounding box (containing cells with vel>maxvel): xmin -12.1373 -1.31284 0.37808, xmax -12.0501 1.31199 1.94611m 
bounding box of vehicle: xmin -12.2 -1.30003 -2.05998e-17, xmax 9.54098e-18 1.30033 3.6m 
yplus max: 52.9292, yplus min: 0.344636 
position of yplus max: -11.9739 -1.28774 2.16477 
yplus prom: 8.30334 
----------------------------------------------------- 
step 3774, time 3.774000, forces 5.229361 0.002839 -1.709519 
step 3775, time 3.775000, maxvel 2.000000, total vol 181461, vol(u>maxvel) 0.0052189, cell count 533
bounding box (containing cells with vel>maxvel): xmin -12.1373 -1.31284 0.37808, xmax -12.0501 1.31199 1.94611m 
bounding box of vehicle: xmin -12.2 -1.30003 -2.05998e-17, xmax 9.54098e-18 1.30033 3.6m 
yplus max: 52.9292, yplus min: 0.347438 
position of yplus max: -11.9739 -1.28774 2.16477 
yplus prom: 8.30322 
----------------------------------------------------- 
step 3775, time 3.775000, forces 5.229341 0.002839 -1.709517 
step 3776, time 3.776000, maxvel 2.000000, total vol 181461, vol(u>maxvel) 0.0052189, cell count 533
bounding box (containing cells with vel>maxvel): xmin -12.1373 -1.31284 0.37808, xmax -12.0501 1.31199 1.94611m 
bounding box of vehicle: xmin -12.2 -1.30003 -2.05998e-17, xmax 9.54098e-18 1.30033 3.6m 
yplus max: 52.9292, yplus min: 0.350701 
position of yplus max: -11.9739 -1.28774 2.16477 
yplus prom: 8.3031 
----------------------------------------------------- 
step 3776, time 3.776000, forces 5.226724 0.002797 -1.708302 
step 3777, time 3.777000, maxvel 2.000000, total vol 181461, vol(u>maxvel) 0.00519722, cell count 532
bounding box (containing cells with vel>maxvel): xmin -12.1373 -1.31284 0.378437, xmax -12.0501 1.31199 1.94611m 
bounding box of vehicle: xmin -12.2 -1.30003 -2.05998e-17, xmax 9.54098e-18 1.30033 3.6m 
yplus max: 52.9291, yplus min: 0.354397 
position of yplus max: -11.9739 -1.28774 2.16477 
yplus prom: 8.30298 
----------------------------------------------------- 
step 3777, time 3.777000, forces 5.227543 0.002913 -1.709166 
step 3778, time 3.778000, maxvel 2.000000, total vol 181461, vol(u>maxvel) 0.00519722, cell count 532
bounding box (containing cells with vel>maxvel): xmin -12.1373 -1.31284 0.378437, xmax -12.0501 1.31199 1.94611m 
bounding box of vehicle: xmin -12.2 -1.30003 -2.05998e-17, xmax 9.54098e-18 1.30033 3.6m 
yplus max: 52.9291, yplus min: 0.358477 
position of yplus max: -11.9739 -1.28774 2.16477 
yplus prom: 8.30287 
----------------------------------------------------- 
step 3778, time 3.778000, forces 5.227039 0.002876 -1.708658 
step 3779, time 3.779000, maxvel 2.000000, total vol 181461, vol(u>maxvel) 0.00519722, cell count 532
bounding box (containing cells with vel>maxvel): xmin -12.1373 -1.31284 0.378437, xmax -12.0501 1.31199 1.94611m 
bounding box of vehicle: xmin -12.2 -1.30003 -2.05998e-17, xmax 9.54098e-18 1.30033 3.6m 
yplus max: 52.9291, yplus min: 0.362897 
position of yplus max: -11.9739 -1.28774 2.16477 
yplus prom: 8.30275 
----------------------------------------------------- 
step 3779, time 3.779000, forces 5.227019 0.002876 -1.708655 
step 3780, time 3.780000, maxvel 2.000000, total vol 181461, vol(u>maxvel) 0.00519722, cell count 532
bounding box (containing cells with vel>maxvel): xmin -12.1373 -1.31284 0.378437, xmax -12.0501 1.31199 1.94611m 
bounding box of vehicle: xmin -12.2 -1.30003 -2.05998e-17, xmax 9.54098e-18 1.30033 3.6m 
yplus max: 52.9291, yplus min: 0.367609 
position of yplus max: -11.9739 -1.28774 2.16477 
yplus prom: 8.30263 
----------------------------------------------------- 
step 3780, time 3.780000, forces 5.225997 0.002937 -1.708750 
step 3781, time 3.781000, maxvel 2.000000, total vol 181461, vol(u>maxvel) 0.00519722, cell count 532
bounding box (containing cells with vel>maxvel): xmin -12.1373 -1.31284 0.378437, xmax -12.0501 1.31199 1.94611m 
bounding box of vehicle: xmin -12.2 -1.30003 -2.05998e-17, xmax 9.54098e-18 1.30033 3.6m 
yplus max: 52.929, yplus min: 0.372592 
position of yplus max: -11.9739 -1.28774 2.16477 
yplus prom: 8.30252 
----------------------------------------------------- 
step 3781, time 3.781000, forces 5.225320 0.002850 -1.708096 
step 3782, time 3.782000, maxvel 2.000000, total vol 181461, vol(u>maxvel) 0.00519722, cell count 532
bounding box (containing cells with vel>maxvel): xmin -12.1373 -1.31284 0.378437, xmax -12.0501 1.31199 1.94611m 
bounding box of vehicle: xmin -12.2 -1.30003 -2.05998e-17, xmax 9.54098e-18 1.30033 3.6m 
yplus max: 52.929, yplus min: 0.377799 
position of yplus max: -11.9739 -1.28774 2.16477 
yplus prom: 8.3024 
----------------------------------------------------- 
step 3782, time 3.782000, forces 5.225300 0.002850 -1.708094 
step 3783, time 3.783000, maxvel 2.000000, total vol 181461, vol(u>maxvel) 0.00519722, cell count 532
bounding box (containing cells with vel>maxvel): xmin -12.1373 -1.31284 0.378437, xmax -12.0501 1.31199 1.94611m 
bounding box of vehicle: xmin -12.2 -1.30003 -2.05998e-17, xmax 9.54098e-18 1.30033 3.6m 
yplus max: 52.929, yplus min: 0.383208 
position of yplus max: -11.9739 -1.28774 2.16477 
yplus prom: 8.30228 
----------------------------------------------------- 
step 3783, time 3.783000, forces 5.224981 0.002918 -1.708411 
step 3784, time 3.784000, maxvel 2.000000, total vol 181461, vol(u>maxvel) 0.00519722, cell count 532
bounding box (containing cells with vel>maxvel): xmin -12.1373 -1.31284 0.378437, xmax -12.0501 1.31199 1.94611m 
bounding box of vehicle: xmin -12.2 -1.30003 -2.05998e-17, xmax 9.54098e-18 1.30033 3.6m 
yplus max: 52.929, yplus min: 0.388777 
position of yplus max: -11.9739 -1.28774 2.16477 
yplus prom: 8.30216 
----------------------------------------------------- 
step 3784, time 3.784000, forces 5.224329 0.002838 -1.707807 
step 3785, time 3.785000, maxvel 2.000000, total vol 181461, vol(u>maxvel) 0.0051838, cell count 531
bounding box (containing cells with vel>maxvel): xmin -12.1373 -1.31284 0.378437, xmax -12.0501 1.31199 1.94611m 
bounding box of vehicle: xmin -12.2 -1.30003 -2.05998e-17, xmax 9.54098e-18 1.30033 3.6m 
yplus max: 52.929, yplus min: 0.394481 
position of yplus max: -11.9739 -1.28774 2.16477 
yplus prom: 8.30205 
----------------------------------------------------- 
step 3785, time 3.785000, forces 5.224309 0.002838 -1.707804 
step 3786, time 3.786000, maxvel 2.000000, total vol 181461, vol(u>maxvel) 0.0051838, cell count 531
bounding box (containing cells with vel>maxvel): xmin -12.1373 -1.31284 0.378437, xmax -12.0501 1.31199 1.94611m 
bounding box of vehicle: xmin -12.2 -1.30003 -2.05998e-17, xmax 9.54098e-18 1.30033 3.6m 
yplus max: 52.9289, yplus min: 0.400292 
position of yplus max: -11.9739 -1.28774 2.16477 
yplus prom: 8.30193 
----------------------------------------------------- 
step 3786, time 3.786000, forces 5.223593 0.002901 -1.708035 
step 3787, time 3.787000, maxvel 2.000000, total vol 181461, vol(u>maxvel) 0.0051838, cell count 531
bounding box (containing cells with vel>maxvel): xmin -12.1373 -1.31284 0.378437, xmax -12.0501 1.31199 1.94611m 
bounding box of vehicle: xmin -12.2 -1.30003 -2.05998e-17, xmax 9.54098e-18 1.30033 3.6m 
yplus max: 52.9289, yplus min: 0.406195 
position of yplus max: -11.9739 -1.28774 2.16477 
yplus prom: 8.30181 
----------------------------------------------------- 
step 3787, time 3.787000, forces 5.222877 0.002821 -1.707432 
step 3788, time 3.788000, maxvel 2.000000, total vol 181461, vol(u>maxvel) 0.0051838, cell count 531
bounding box (containing cells with vel>maxvel): xmin -12.1373 -1.31284 0.378437, xmax -12.0501 1.31199 1.94611m 
bounding box of vehicle: xmin -12.2 -1.30003 -2.05998e-17, xmax 9.54098e-18 1.30033 3.6m 
yplus max: 52.9289, yplus min: 0.412166 
position of yplus max: -11.9739 -1.28774 2.16477 
yplus prom: 8.3017 
----------------------------------------------------- 
step 3788, time 3.788000, forces 5.222858 0.002821 -1.707430 
step 3789, time 3.789000, maxvel 2.000000, total vol 181461, vol(u>maxvel) 0.00515749, cell count 530
bounding box (containing cells with vel>maxvel): xmin -12.1373 -1.31284 0.378437, xmax -12.0501 1.31199 1.94611m 
bounding box of vehicle: xmin -12.2 -1.30003 -2.05998e-17, xmax 9.54098e-18 1.30033 3.6m 
yplus max: 52.9289, yplus min: 0.418195 
position of yplus max: -11.9739 -1.28774 2.16477 
yplus prom: 8.30158 
----------------------------------------------------- 
step 3789, time 3.789000, forces 5.222253 0.002889 -1.707669 
step 3790, time 3.790000, maxvel 2.000000, total vol 181461, vol(u>maxvel) 0.00515749, cell count 530
bounding box (containing cells with vel>maxvel): xmin -12.1373 -1.31284 0.378437, xmax -12.0501 1.31199 1.94611m 
bounding box of vehicle: xmin -12.2 -1.30003 -2.05998e-17, xmax 9.54098e-18 1.30033 3.6m 
yplus max: 52.9288, yplus min: 0.424263 
position of yplus max: -11.9739 -1.28774 2.16477 
yplus prom: 8.30146 
----------------------------------------------------- 
step 3790, time 3.790000, forces 5.221551 0.002818 -1.707077 
step 3791, time 3.791000, maxvel 2.000000, total vol 181461, vol(u>maxvel) 0.00515749, cell count 530
bounding box (containing cells with vel>maxvel): xmin -12.1373 -1.31284 0.378437, xmax -12.0501 1.31199 1.94611m 
bounding box of vehicle: xmin -12.2 -1.30003 -2.05998e-17, xmax 9.54098e-18 1.30033 3.6m 
yplus max: 52.9288, yplus min: 0.430355 
position of yplus max: -11.9739 -1.28774 2.16477 
yplus prom: 8.30134 
----------------------------------------------------- 
step 3791, time 3.791000, forces 5.221531 0.002818 -1.707074 
step 3792, time 3.792000, maxvel 2.000000, total vol 181461, vol(u>maxvel) 0.00515749, cell count 530
bounding box (containing cells with vel>maxvel): xmin -12.1373 -1.31284 0.378437, xmax -12.0501 1.31199 1.94611m 
bounding box of vehicle: xmin -12.2 -1.30003 -2.05998e-17, xmax 9.54098e-18 1.30033 3.6m 
yplus max: 52.9288, yplus min: 0.43646 
position of yplus max: -11.9739 -1.28774 2.16477 
yplus prom: 8.30123 
----------------------------------------------------- 
step 3792, time 3.792000, forces 5.220871 0.002899 -1.707267 
step 3793, time 3.793000, maxvel 2.000000, total vol 181461, vol(u>maxvel) 0.00515749, cell count 530
bounding box (containing cells with vel>maxvel): xmin -12.1373 -1.31284 0.378437, xmax -12.0501 1.31199 1.94611m 
bounding box of vehicle: xmin -12.2 -1.30003 -2.05998e-17, xmax 9.54098e-18 1.30033 3.6m 
yplus max: 52.9288, yplus min: 0.442578 
position of yplus max: -11.9739 -1.28774 2.16477 
yplus prom: 8.30111 
----------------------------------------------------- 
step 3793, time 3.793000, forces 5.220211 0.002835 -1.706687 
step 3794, time 3.794000, maxvel 2.000000, total vol 181461, vol(u>maxvel) 0.00515749, cell count 530
bounding box (containing cells with vel>maxvel): xmin -12.1373 -1.31284 0.378437, xmax -12.0501 1.31199 1.94611m 
bounding box of vehicle: xmin -12.2 -1.30003 -2.05998e-17, xmax 9.54098e-18 1.30033 3.6m 
yplus max: 52.9288, yplus min: 0.448692 
position of yplus max: -11.9739 -1.28774 2.16477 
yplus prom: 8.30099 
----------------------------------------------------- 
step 3794, time 3.794000, forces 5.220191 0.002835 -1.706685 
step 3795, time 3.795000, maxvel 2.000000, total vol 181461, vol(u>maxvel) 0.00515749, cell count 530
bounding box (containing cells with vel>maxvel): xmin -12.1373 -1.31284 0.378437, xmax -12.0501 1.31199 1.94611m 
bounding box of vehicle: xmin -12.2 -1.30003 -2.05998e-17, xmax 9.54098e-18 1.30033 3.6m 
yplus max: 52.9287, yplus min: 0.454793 
position of yplus max: -11.9739 -1.28774 2.16477 
yplus prom: 8.30088 
----------------------------------------------------- 
step 3795, time 3.795000, forces 5.219550 0.002911 -1.706875 
step 3796, time 3.796000, maxvel 2.000000, total vol 181461, vol(u>maxvel) 0.00515749, cell count 530
bounding box (containing cells with vel>maxvel): xmin -12.1373 -1.31284 0.378437, xmax -12.0501 1.31199 1.94611m 
bounding box of vehicle: xmin -12.2 -1.30003 -2.05998e-17, xmax 9.54098e-18 1.30033 3.6m 
yplus max: 52.9287, yplus min: 0.460886 
position of yplus max: -11.9739 -1.28774 2.16477 
yplus prom: 8.30076 
----------------------------------------------------- 
step 3796, time 3.796000, forces 5.218896 0.002840 -1.706316 
step 3797, time 3.797000, maxvel 2.000000, total vol 181461, vol(u>maxvel) 0.00515749, cell count 530
bounding box (containing cells with vel>maxvel): xmin -12.1373 -1.31284 0.378437, xmax -12.0501 1.31199 1.94611m 
bounding box of vehicle: xmin -12.2 -1.30003 -2.05998e-17, xmax 9.54098e-18 1.30033 3.6m 
yplus max: 52.9287, yplus min: 0.466957 
position of yplus max: -11.9739 -1.28774 2.16477 
yplus prom: 8.30064 
----------------------------------------------------- 
step 3797, time 3.797000, forces 5.218876 0.002840 -1.706313 
step 3798, time 3.798000, maxvel 2.000000, total vol 181461, vol(u>maxvel) 0.00515749, cell count 530
bounding box (containing cells with vel>maxvel): xmin -12.1373 -1.31284 0.378437, xmax -12.0501 1.31199 1.94611m 
bounding box of vehicle: xmin -12.2 -1.30003 -2.05998e-17, xmax 9.54098e-18 1.30033 3.6m 
yplus max: 52.9287, yplus min: 0.473001 
position of yplus max: -11.9739 -1.28774 2.16477 
yplus prom: 8.30053 
----------------------------------------------------- 
step 3798, time 3.798000, forces 5.218206 0.002906 -1.706496 
step 3799, time 3.799000, maxvel 2.000000, total vol 181461, vol(u>maxvel) 0.00515749, cell count 530
bounding box (containing cells with vel>maxvel): xmin -12.1373 -1.31284 0.378437, xmax -12.0501 1.31199 1.94611m 
bounding box of vehicle: xmin -12.2 -1.30003 -2.05998e-17, xmax 9.54098e-18 1.30033 3.6m 
yplus max: 52.9286, yplus min: 0.479015 
position of yplus max: -11.9739 -1.28774 2.16477 
yplus prom: 8.30041 
----------------------------------------------------- 
step 3799, time 3.799000, forces 5.218186 0.002906 -1.706494 
step 3800, time 3.800000, maxvel 2.000000, total vol 181461, vol(u>maxvel) 0.00515749, cell count 530
bounding box (containing cells with vel>maxvel): xmin -12.1373 -1.31284 0.378437, xmax -12.0501 1.31199 1.94611m 
bounding box of vehicle: xmin -12.2 -1.30003 -2.05998e-17, xmax 9.54098e-18 1.30033 3.6m 
yplus max: 52.9286, yplus min: 0.485014 
position of yplus max: -11.9739 -1.28774 2.16477 
yplus prom: 8.30029 
----------------------------------------------------- 
step 3800, time 3.800000, forces 5.216455 0.002655 -1.705198 
step 3801, time 3.801000, maxvel 2.000000, total vol 181461, vol(u>maxvel) 0.00515749, cell count 530
bounding box (containing cells with vel>maxvel): xmin -12.1373 -1.31284 0.378437, xmax -12.0501 1.31199 1.94611m 
bounding box of vehicle: xmin -12.2 -1.30003 -2.05998e-17, xmax 9.54098e-18 1.30033 3.6m 
yplus max: 52.9286, yplus min: 0.490977 
position of yplus max: -11.9739 -1.28774 2.16477 
yplus prom: 8.30018 
----------------------------------------------------- 
step 3801, time 3.801000, forces 5.217553 0.002932 -1.706438 
step 3802, time 3.802000, maxvel 2.000000, total vol 181461, vol(u>maxvel) 0.00515749, cell count 530
bounding box (containing cells with vel>maxvel): xmin -12.1373 -1.31284 0.378437, xmax -12.0501 1.31199 1.94611m 
bounding box of vehicle: xmin -12.2 -1.30003 -2.05998e-17, xmax 9.54098e-18 1.30033 3.6m 
yplus max: 52.9286, yplus min: 0.496899 
position of yplus max: -11.9739 -1.28774 2.16477 
yplus prom: 8.30006 
----------------------------------------------------- 
step 3802, time 3.802000, forces 5.216584 0.002831 -1.705601 
step 3803, time 3.803000, maxvel 2.000000, total vol 181461, vol(u>maxvel) 0.00515749, cell count 530
bounding box (containing cells with vel>maxvel): xmin -12.1373 -1.31284 0.378437, xmax -12.0501 1.31199 1.94611m 
bounding box of vehicle: xmin -12.2 -1.30003 -2.05998e-17, xmax 9.54098e-18 1.30033 3.6m 
yplus max: 52.9286, yplus min: 0.502782 
position of yplus max: -11.9739 -1.28774 2.16477 
yplus prom: 8.29994 
----------------------------------------------------- 
step 3803, time 3.803000, forces 5.216564 0.002831 -1.705599 
step 3804, time 3.804000, maxvel 2.000000, total vol 181461, vol(u>maxvel) 0.00515749, cell count 530
bounding box (containing cells with vel>maxvel): xmin -12.1373 -1.31284 0.378437, xmax -12.0501 1.31199 1.94611m 
bounding box of vehicle: xmin -12.2 -1.30003 -2.05998e-17, xmax 9.54098e-18 1.30033 3.6m 
yplus max: 52.9285, yplus min: 0.505637 
position of yplus max: -11.9739 -1.28774 2.16477 
yplus prom: 8.29983 
----------------------------------------------------- 
step 3804, time 3.804000, forces 5.215068 0.002974 -1.705923 
step 3805, time 3.805000, maxvel 2.000000, total vol 181461, vol(u>maxvel) 0.00515749, cell count 530
bounding box (containing cells with vel>maxvel): xmin -12.1373 -1.31284 0.378437, xmax -12.0501 1.31199 1.94611m 
bounding box of vehicle: xmin -12.2 -1.30003 -2.05998e-17, xmax 9.54098e-18 1.30033 3.6m 
yplus max: 52.9285, yplus min: 0.503579 
position of yplus max: -11.9739 -1.28774 2.16477 
yplus prom: 8.29971 
----------------------------------------------------- 
step 3805, time 3.805000, forces 5.214645 0.002830 -1.705044 
step 3806, time 3.806000, maxvel 2.000000, total vol 181461, vol(u>maxvel) 0.00515749, cell count 530
bounding box (containing cells with vel>maxvel): xmin -12.1373 -1.31284 0.378437, xmax -12.0501 1.31199 1.94611m 
bounding box of vehicle: xmin -12.2 -1.30003 -2.05998e-17, xmax 9.54098e-18 1.30033 3.6m 
yplus max: 52.9285, yplus min: 0.501536 
position of yplus max: -11.9739 -1.28774 2.16477 
yplus prom: 8.29959 
----------------------------------------------------- 
step 3806, time 3.806000, forces 5.214759 0.002858 -1.705354 
step 3807, time 3.807000, maxvel 2.000000, total vol 181461, vol(u>maxvel) 0.00515749, cell count 530
bounding box (containing cells with vel>maxvel): xmin -12.1373 -1.31284 0.378437, xmax -12.0501 1.31199 1.94611m 
bounding box of vehicle: xmin -12.2 -1.30003 -2.05998e-17, xmax 9.54098e-18 1.30033 3.6m 
yplus max: 52.9285, yplus min: 0.499502 
position of yplus max: -11.9739 -1.28774 2.16477 
yplus prom: 8.29948 
----------------------------------------------------- 
step 3807, time 3.807000, forces 5.214739 0.002858 -1.705351 
step 3808, time 3.808000, maxvel 2.000000, total vol 181461, vol(u>maxvel) 0.00515749, cell count 530
bounding box (containing cells with vel>maxvel): xmin -12.1373 -1.31284 0.378437, xmax -12.0501 1.31199 1.94611m 
bounding box of vehicle: xmin -12.2 -1.30003 -2.05998e-17, xmax 9.54098e-18 1.30033 3.6m 
yplus max: 52.9284, yplus min: 0.497498 
position of yplus max: -11.9739 -1.28774 2.16477 
yplus prom: 8.29936 
----------------------------------------------------- 
step 3808, time 3.808000, forces 5.213069 0.002817 -1.704512 
srun: Job step aborted: Waiting up to 32 seconds for job step to finish.
srun: got SIGCONT
slurmstepd: error: *** JOB 138370 ON compute-0-26 CANCELLED AT 2022-08-02T23:25:05 ***
srun: forcing job termination
make: *** [run] Terminated
slurmstepd: error: *** STEP 138370.0 ON compute-0-26 CANCELLED AT 2022-08-02T23:25:05 ***
