Start run at mié sep 7 10:58:29 ART 2022
PYTHON_CS_XFLAGS=' -O0 -g3 -ggdb3 -I/usr/include/jsoncpp ' /share/storage/pub/mstorti/saturne-vof/bin/code_saturne  run --param setup.xml

The following have been reloaded with a version change:
  1) llvm/6.0.0 => llvm/3.4.2


The following have been reloaded with a version change:
  1) llvm/3.4.2 => llvm/6.0.0


                      Code_Saturne
                      ************

 Version:   6.1-alpha
 Path:      /share/storage/pub/mstorti/saturne-vof

 Result directory:
   /share/storage/finzeo/GTS_Tunay_2/RESU/20220907-1058


 ****************************************
  Compiling user subroutines and linking
 ****************************************


 ****************************
  Preparing calculation data
 ****************************

 Parallel Code_Saturne on 80 processes.


 ***************************
  Preprocessing calculation
 ***************************


 **********************
  Starting calculation
 **********************

Warning: Process to core binding is enabled and OMP_NUM_THREADS is set to non-zero (1) value
If your program has OpenMP sections, this can cause over-subscription of cores and consequently poor performance
To avoid this, please re-run your application after setting MV2_ENABLE_AFFINITY=0
Use MV2_USE_THREAD_WARNING=0 to suppress this message
step 1, time 0.000750, maxvel 3.000000, total vol 359.697, vol(u>maxvel) 0, cell count 0
bounding box (containing cells with vel>maxvel): xmin inf inf inf, xmax -inf -inf -infm 
bounding box of vehicle: xmin -2.47489 -0.161927 0.0631, xmax 0 0.161927 0.5139m 
gts area: 4.03325 
yplus max: 4.43412, yplus min: 0 
position of yplus max: -2.28486 -0.00753125 0.48394 
yplus prom: 3.85413 
forces: 26.339223 0.017418 -3.636557 
Drag coefficient: 195.839103 
torque (ref. CG): -0.004152 (roll) 1.779395 (pitch) -0.021553 (yaw) 
----------------------------------------------------- 
step 2, time 0.001500, maxvel 3.000000, total vol 359.697, vol(u>maxvel) 0, cell count 0
bounding box (containing cells with vel>maxvel): xmin inf inf inf, xmax -inf -inf -infm 
bounding box of vehicle: xmin -2.47489 -0.161927 0.0631, xmax 0 0.161927 0.5139m 
gts area: 4.03325 
yplus max: 1.06138, yplus min: 0.170303 
position of yplus max: -2.31953 -0.00684782 0.47069 
yplus prom: 0.835586 
forces: 81.527045 -0.002052 -9.923559 
Drag coefficient: 606.175179 
torque (ref. CG): 0.000489 (roll) 7.156635 (pitch) 0.002539 (yaw) 
----------------------------------------------------- 
step 3, time 0.002250, maxvel 3.000000, total vol 359.697, vol(u>maxvel) 0, cell count 0
bounding box (containing cells with vel>maxvel): xmin inf inf inf, xmax -inf -inf -infm 
bounding box of vehicle: xmin -2.47489 -0.161927 0.0631, xmax 0 0.161927 0.5139m 
gts area: 4.03325 
yplus max: 3.77162, yplus min: 0.0727019 
position of yplus max: -2.47418 0.160898 0.138855 
yplus prom: 0.987132 
forces: 21.529360 0.023120 -2.140155 
Drag coefficient: 160.076495 
torque (ref. CG): -0.005512 (roll) 2.484371 (pitch) -0.028609 (yaw) 
----------------------------------------------------- 
step 4, time 0.003000, maxvel 3.000000, total vol 359.697, vol(u>maxvel) 0, cell count 0
bounding box (containing cells with vel>maxvel): xmin inf inf inf, xmax -inf -inf -infm 
bounding box of vehicle: xmin -2.47489 -0.161927 0.0631, xmax 0 0.161927 0.5139m 
gts area: 4.03325 
yplus max: 3.63542, yplus min: 0.166637 
position of yplus max: -2.47422 0.16113 0.106396 
yplus prom: 0.952437 
forces: -0.484460 0.002143 0.064350 
Drag coefficient: -3.602091 
torque (ref. CG): -0.000511 (roll) -0.035868 (pitch) -0.002651 (yaw) 
----------------------------------------------------- 
step 5, time 0.003750, maxvel 3.000000, total vol 359.697, vol(u>maxvel) 0, cell count 0
bounding box (containing cells with vel>maxvel): xmin inf inf inf, xmax -inf -inf -infm 
bounding box of vehicle: xmin -2.47489 -0.161927 0.0631, xmax 0 0.161927 0.5139m 
gts area: 4.03325 
yplus max: 3.5881, yplus min: 0.144955 
position of yplus max: -2.47428 0.160903 0.117671 
yplus prom: 0.942862 
forces: -0.489435 -0.003481 0.121281 
Drag coefficient: -3.639078 
torque (ref. CG): 0.000830 (roll) 0.033391 (pitch) 0.004308 (yaw) 
----------------------------------------------------- 
step 6, time 0.004500, maxvel 3.000000, total vol 359.697, vol(u>maxvel) 0, cell count 0
bounding box (containing cells with vel>maxvel): xmin inf inf inf, xmax -inf -inf -infm 
bounding box of vehicle: xmin -2.47489 -0.161927 0.0631, xmax 0 0.161927 0.5139m 
gts area: 4.03325 
yplus max: 3.6576, yplus min: 0.176323 
position of yplus max: -2.47422 0.16113 0.106396 
yplus prom: 0.940478 
forces: 0.052727 0.000709 0.004116 
Drag coefficient: 0.392037 
torque (ref. CG): -0.000169 (roll) 0.017664 (pitch) -0.000877 (yaw) 
----------------------------------------------------- 
step 7, time 0.005250, maxvel 3.000000, total vol 359.697, vol(u>maxvel) 0, cell count 0
bounding box (containing cells with vel>maxvel): xmin inf inf inf, xmax -inf -inf -infm 
bounding box of vehicle: xmin -2.47489 -0.161927 0.0631, xmax 0 0.161927 0.5139m 
gts area: 4.03325 
yplus max: 3.71774, yplus min: 0.136399 
position of yplus max: -2.47422 0.16113 0.106396 
yplus prom: 0.938655 
forces: 0.119726 0.001669 -0.015271 
Drag coefficient: 0.890191 
torque (ref. CG): -0.000398 (roll) 0.009646 (pitch) -0.002065 (yaw) 
----------------------------------------------------- 
step 8, time 0.006000, maxvel 3.000000, total vol 359.697, vol(u>maxvel) 0, cell count 0
bounding box (containing cells with vel>maxvel): xmin inf inf inf, xmax -inf -inf -infm 
bounding box of vehicle: xmin -2.47489 -0.161927 0.0631, xmax 0 0.161927 0.5139m 
gts area: 4.03325 
yplus max: 3.76076, yplus min: 0.0722096 
position of yplus max: -2.47422 0.16113 0.106396 
yplus prom: 0.937082 
forces: 0.102589 0.001471 -0.011921 
Drag coefficient: 0.762773 
torque (ref. CG): -0.000351 (roll) 0.009706 (pitch) -0.001820 (yaw) 
----------------------------------------------------- 
step 9, time 0.006750, maxvel 3.000000, total vol 359.697, vol(u>maxvel) 0, cell count 0
bounding box (containing cells with vel>maxvel): xmin inf inf inf, xmax -inf -inf -infm 
bounding box of vehicle: xmin -2.47489 -0.161927 0.0631, xmax 0 0.161927 0.5139m 
gts area: 4.03325 
yplus max: 3.79503, yplus min: 0.167337 
position of yplus max: -2.47422 0.16113 0.106396 
yplus prom: 0.936132 
forces: 0.096164 0.001280 -0.010248 
Drag coefficient: 0.715004 
torque (ref. CG): -0.000305 (roll) 0.010245 (pitch) -0.001584 (yaw) 
----------------------------------------------------- 
step 10, time 0.007500, maxvel 3.000000, total vol 359.697, vol(u>maxvel) 0, cell count 0
bounding box (containing cells with vel>maxvel): xmin inf inf inf, xmax -inf -inf -infm 
bounding box of vehicle: xmin -2.47489 -0.161927 0.0631, xmax 0 0.161927 0.5139m 
gts area: 4.03325 
yplus max: 3.82396, yplus min: 0.158339 
position of yplus max: -2.47422 0.16113 0.106396 
yplus prom: 0.935822 
forces: 0.096622 0.001227 -0.010244 
Drag coefficient: 0.718410 
torque (ref. CG): -0.000292 (roll) 0.010359 (pitch) -0.001518 (yaw) 
----------------------------------------------------- 
step 11, time 0.008250, maxvel 3.000000, total vol 359.697, vol(u>maxvel) 0, cell count 0
bounding box (containing cells with vel>maxvel): xmin inf inf inf, xmax -inf -inf -infm 
bounding box of vehicle: xmin -2.47489 -0.161927 0.0631, xmax 0 0.161927 0.5139m 
gts area: 4.03325 
yplus max: 3.84907, yplus min: 0.131856 
position of yplus max: -2.47422 0.16113 0.106396 
yplus prom: 0.936106 
forces: 0.097795 0.001211 -0.010481 
Drag coefficient: 0.727134 
torque (ref. CG): -0.000289 (roll) 0.010345 (pitch) -0.001499 (yaw) 
----------------------------------------------------- 
step 12, time 0.009000, maxvel 3.000000, total vol 359.697, vol(u>maxvel) 0, cell count 0
bounding box (containing cells with vel>maxvel): xmin inf inf inf, xmax -inf -inf -infm 
bounding box of vehicle: xmin -2.47489 -0.161927 0.0631, xmax 0 0.161927 0.5139m 
gts area: 4.03325 
yplus max: 3.87118, yplus min: 0.197644 
position of yplus max: -2.47422 0.16113 0.106396 
yplus prom: 0.936834 
forces: 0.098651 0.001199 -0.010657 
Drag coefficient: 0.733493 
torque (ref. CG): -0.000286 (roll) 0.010332 (pitch) -0.001484 (yaw) 
----------------------------------------------------- 
step 13, time 0.009750, maxvel 3.000000, total vol 359.697, vol(u>maxvel) 0, cell count 0
bounding box (containing cells with vel>maxvel): xmin inf inf inf, xmax -inf -inf -infm 
bounding box of vehicle: xmin -2.47489 -0.161927 0.0631, xmax 0 0.161927 0.5139m 
gts area: 4.03325 
yplus max: 3.891, yplus min: 0.184085 
position of yplus max: -2.47422 0.16113 0.106396 
yplus prom: 0.937886 
forces: 0.099356 0.001194 -0.010795 
Drag coefficient: 0.738737 
torque (ref. CG): -0.000285 (roll) 0.010328 (pitch) -0.001478 (yaw) 
----------------------------------------------------- 
step 14, time 0.010500, maxvel 3.000000, total vol 359.697, vol(u>maxvel) 0, cell count 0
bounding box (containing cells with vel>maxvel): xmin inf inf inf, xmax -inf -inf -infm 
bounding box of vehicle: xmin -2.47489 -0.161927 0.0631, xmax 0 0.161927 0.5139m 
gts area: 4.03325 
yplus max: 3.90897, yplus min: 0.133819 
position of yplus max: -2.47422 0.16113 0.106396 
yplus prom: 0.939204 
forces: 0.100045 0.001190 -0.010925 
Drag coefficient: 0.743858 
torque (ref. CG): -0.000284 (roll) 0.010332 (pitch) -0.001472 (yaw) 
----------------------------------------------------- 
step 15, time 0.011250, maxvel 3.000000, total vol 359.697, vol(u>maxvel) 0, cell count 0
bounding box (containing cells with vel>maxvel): xmin inf inf inf, xmax -inf -inf -infm 
bounding box of vehicle: xmin -2.47489 -0.161927 0.0631, xmax 0 0.161927 0.5139m 
gts area: 4.03325 
yplus max: 3.9254, yplus min: 0.108006 
position of yplus max: -2.47422 0.16113 0.106396 
yplus prom: 0.940673 
forces: 0.100734 0.001184 -0.011049 
Drag coefficient: 0.748982 
torque (ref. CG): -0.000282 (roll) 0.010343 (pitch) -0.001465 (yaw) 
----------------------------------------------------- 
step 16, time 0.012000, maxvel 3.000000, total vol 359.697, vol(u>maxvel) 0, cell count 0
bounding box (containing cells with vel>maxvel): xmin inf inf inf, xmax -inf -inf -infm 
bounding box of vehicle: xmin -2.47489 -0.161927 0.0631, xmax 0 0.161927 0.5139m 
gts area: 4.03325 
yplus max: 3.94053, yplus min: 0.129037 
position of yplus max: -2.47422 0.16113 0.106396 
yplus prom: 0.942209 
forces: 0.101414 0.001181 -0.011172 
Drag coefficient: 0.754038 
torque (ref. CG): -0.000282 (roll) 0.010353 (pitch) -0.001462 (yaw) 
----------------------------------------------------- 
step 17, time 0.012750, maxvel 3.000000, total vol 359.697, vol(u>maxvel) 0, cell count 0
bounding box (containing cells with vel>maxvel): xmin inf inf inf, xmax -inf -inf -infm 
bounding box of vehicle: xmin -2.47489 -0.161927 0.0631, xmax 0 0.161927 0.5139m 
gts area: 4.03325 
yplus max: 3.95454, yplus min: 0.116617 
position of yplus max: -2.47422 0.16113 0.106396 
yplus prom: 0.943785 
forces: 0.102081 0.001179 -0.011291 
Drag coefficient: 0.759002 
torque (ref. CG): -0.000281 (roll) 0.010364 (pitch) -0.001459 (yaw) 
----------------------------------------------------- 
step 18, time 0.013500, maxvel 3.000000, total vol 359.697, vol(u>maxvel) 0, cell count 0
bounding box (containing cells with vel>maxvel): xmin inf inf inf, xmax -inf -inf -infm 
bounding box of vehicle: xmin -2.47489 -0.161927 0.0631, xmax 0 0.161927 0.5139m 
gts area: 4.03325 
yplus max: 3.96749, yplus min: 0.119747 
position of yplus max: -2.47422 0.16113 0.106396 
yplus prom: 0.945386 
forces: 0.102738 0.001178 -0.011407 
Drag coefficient: 0.763884 
torque (ref. CG): -0.000281 (roll) 0.010378 (pitch) -0.001458 (yaw) 
----------------------------------------------------- 
step 19, time 0.014250, maxvel 3.000000, total vol 359.697, vol(u>maxvel) 0, cell count 0
bounding box (containing cells with vel>maxvel): xmin inf inf inf, xmax -inf -inf -infm 
bounding box of vehicle: xmin -2.47489 -0.161927 0.0631, xmax 0 0.161927 0.5139m 
gts area: 4.03325 
yplus max: 3.97945, yplus min: 0.0935571 
position of yplus max: -2.47422 0.16113 0.106396 
yplus prom: 0.946993 
forces: 0.103383 0.001177 -0.011520 
Drag coefficient: 0.768680 
torque (ref. CG): -0.000281 (roll) 0.010391 (pitch) -0.001456 (yaw) 
----------------------------------------------------- 
step 20, time 0.015000, maxvel 3.000000, total vol 359.697, vol(u>maxvel) 0, cell count 0
bounding box (containing cells with vel>maxvel): xmin inf inf inf, xmax -inf -inf -infm 
bounding box of vehicle: xmin -2.47489 -0.161927 0.0631, xmax 0 0.161927 0.5139m 
gts area: 4.03325 
yplus max: 3.99051, yplus min: 0.0783229 
position of yplus max: -2.47422 0.16113 0.106396 
yplus prom: 0.948583 
forces: 0.104017 0.001176 -0.011632 
Drag coefficient: 0.773392 
torque (ref. CG): -0.000280 (roll) 0.010404 (pitch) -0.001455 (yaw) 
----------------------------------------------------- 
step 21, time 0.015750, maxvel 3.000000, total vol 359.697, vol(u>maxvel) 0, cell count 0
bounding box (containing cells with vel>maxvel): xmin inf inf inf, xmax -inf -inf -infm 
bounding box of vehicle: xmin -2.47489 -0.161927 0.0631, xmax 0 0.161927 0.5139m 
gts area: 4.03325 
yplus max: 4.00073, yplus min: 0.100939 
position of yplus max: -2.47422 0.16113 0.106396 
yplus prom: 0.950149 
forces: 0.104639 0.001175 -0.011742 
Drag coefficient: 0.778016 
torque (ref. CG): -0.000280 (roll) 0.010417 (pitch) -0.001454 (yaw) 
----------------------------------------------------- 
step 22, time 0.016500, maxvel 3.000000, total vol 359.697, vol(u>maxvel) 0, cell count 0
bounding box (containing cells with vel>maxvel): xmin inf inf inf, xmax -inf -inf -infm 
bounding box of vehicle: xmin -2.47489 -0.161927 0.0631, xmax 0 0.161927 0.5139m 
gts area: 4.03325 
yplus max: 4.01014, yplus min: 0.0829538 
position of yplus max: -2.47422 0.16113 0.106396 
yplus prom: 0.951694 
forces: 0.105249 0.001174 -0.011850 
Drag coefficient: 0.782552 
torque (ref. CG): -0.000280 (roll) 0.010428 (pitch) -0.001453 (yaw) 
----------------------------------------------------- 
step 23, time 0.017250, maxvel 3.000000, total vol 359.697, vol(u>maxvel) 0, cell count 0
bounding box (containing cells with vel>maxvel): xmin inf inf inf, xmax -inf -inf -infm 
bounding box of vehicle: xmin -2.47489 -0.161927 0.0631, xmax 0 0.161927 0.5139m 
gts area: 4.03325 
yplus max: 4.0188, yplus min: 0.0816068 
position of yplus max: -2.47422 0.16113 0.106396 
yplus prom: 0.953204 
forces: 0.105847 0.001173 -0.011956 
Drag coefficient: 0.787004 
torque (ref. CG): -0.000280 (roll) 0.010440 (pitch) -0.001452 (yaw) 
----------------------------------------------------- 
step 24, time 0.018000, maxvel 3.000000, total vol 359.697, vol(u>maxvel) 0, cell count 0
bounding box (containing cells with vel>maxvel): xmin inf inf inf, xmax -inf -inf -infm 
bounding box of vehicle: xmin -2.47489 -0.161927 0.0631, xmax 0 0.161927 0.5139m 
gts area: 4.03325 
yplus max: 4.02676, yplus min: 0.102141 
position of yplus max: -2.47422 0.16113 0.106396 
yplus prom: 0.954684 
forces: 0.106435 0.001173 -0.012059 
Drag coefficient: 0.791371 
torque (ref. CG): -0.000280 (roll) 0.010452 (pitch) -0.001451 (yaw) 
----------------------------------------------------- 
step 25, time 0.018750, maxvel 3.000000, total vol 359.697, vol(u>maxvel) 0, cell count 0
bounding box (containing cells with vel>maxvel): xmin inf inf inf, xmax -inf -inf -infm 
bounding box of vehicle: xmin -2.47489 -0.161927 0.0631, xmax 0 0.161927 0.5139m 
gts area: 4.03325 
yplus max: 4.0341, yplus min: 0.124209 
position of yplus max: -2.47422 0.16113 0.106396 
yplus prom: 0.956122 
forces: 0.107010 0.001172 -0.012162 
Drag coefficient: 0.795651 
torque (ref. CG): -0.000279 (roll) 0.010462 (pitch) -0.001450 (yaw) 
----------------------------------------------------- 
step 26, time 0.019500, maxvel 3.000000, total vol 359.697, vol(u>maxvel) 0, cell count 0
bounding box (containing cells with vel>maxvel): xmin inf inf inf, xmax -inf -inf -infm 
bounding box of vehicle: xmin -2.47489 -0.161927 0.0631, xmax 0 0.161927 0.5139m 
gts area: 4.03325 
yplus max: 4.04085, yplus min: 0.0749777 
position of yplus max: -2.47422 0.16113 0.106396 
yplus prom: 0.957518 
forces: 0.107574 0.001172 -0.012263 
Drag coefficient: 0.799844 
torque (ref. CG): -0.000279 (roll) 0.010472 (pitch) -0.001450 (yaw) 
----------------------------------------------------- 
step 27, time 0.020250, maxvel 3.000000, total vol 359.697, vol(u>maxvel) 0, cell count 0
bounding box (containing cells with vel>maxvel): xmin inf inf inf, xmax -inf -inf -infm 
bounding box of vehicle: xmin -2.47489 -0.161927 0.0631, xmax 0 0.161927 0.5139m 
gts area: 4.03325 
yplus max: 4.04716, yplus min: 0.11689 
position of yplus max: -2.47432 -0.160665 0.229698 
yplus prom: 0.958876 
forces: 0.108127 0.001171 -0.012363 
Drag coefficient: 0.803950 
torque (ref. CG): -0.000279 (roll) 0.010479 (pitch) -0.001449 (yaw) 
----------------------------------------------------- 
step 28, time 0.021000, maxvel 3.000000, total vol 359.697, vol(u>maxvel) 0, cell count 0
bounding box (containing cells with vel>maxvel): xmin inf inf inf, xmax -inf -inf -infm 
bounding box of vehicle: xmin -2.47489 -0.161927 0.0631, xmax 0 0.161927 0.5139m 
gts area: 4.03325 
yplus max: 4.05341, yplus min: 0.116856 
position of yplus max: -2.47432 -0.160665 0.229698 
yplus prom: 0.960197 
forces: 0.108668 0.001171 -0.012462 
Drag coefficient: 0.807972 
torque (ref. CG): -0.000279 (roll) 0.010485 (pitch) -0.001449 (yaw) 
----------------------------------------------------- 
step 29, time 0.021750, maxvel 3.000000, total vol 359.697, vol(u>maxvel) 0, cell count 0
bounding box (containing cells with vel>maxvel): xmin inf inf inf, xmax -inf -inf -infm 
bounding box of vehicle: xmin -2.47489 -0.161927 0.0631, xmax 0 0.161927 0.5139m 
gts area: 4.03325 
yplus max: 4.05922, yplus min: 0.124005 
position of yplus max: -2.47432 -0.160665 0.229698 
yplus prom: 0.96148 
forces: 0.109198 0.001171 -0.012561 
Drag coefficient: 0.811912 
torque (ref. CG): -0.000279 (roll) 0.010490 (pitch) -0.001449 (yaw) 
----------------------------------------------------- 
step 30, time 0.022500, maxvel 3.000000, total vol 359.697, vol(u>maxvel) 0, cell count 0
bounding box (containing cells with vel>maxvel): xmin inf inf inf, xmax -inf -inf -infm 
bounding box of vehicle: xmin -2.47489 -0.161927 0.0631, xmax 0 0.161927 0.5139m 
gts area: 4.03325 
yplus max: 4.0646, yplus min: 0.109565 
position of yplus max: -2.47432 -0.160665 0.229698 
yplus prom: 0.962725 
forces: 0.109717 0.001172 -0.012658 
Drag coefficient: 0.815779 
torque (ref. CG): -0.000279 (roll) 0.010494 (pitch) -0.001450 (yaw) 
----------------------------------------------------- 
step 31, time 0.023250, maxvel 3.000000, total vol 359.697, vol(u>maxvel) 0, cell count 0
bounding box (containing cells with vel>maxvel): xmin inf inf inf, xmax -inf -inf -infm 
bounding box of vehicle: xmin -2.47489 -0.161927 0.0631, xmax 0 0.161927 0.5139m 
gts area: 4.03325 
yplus max: 4.06959, yplus min: 0.0953427 
position of yplus max: -2.47432 -0.160665 0.229698 
yplus prom: 0.963934 
forces: 0.110226 0.001172 -0.012753 
Drag coefficient: 0.819562 
torque (ref. CG): -0.000279 (roll) 0.010497 (pitch) -0.001450 (yaw) 
----------------------------------------------------- 
step 32, time 0.024000, maxvel 3.000000, total vol 359.697, vol(u>maxvel) 0, cell count 0
bounding box (containing cells with vel>maxvel): xmin inf inf inf, xmax -inf -inf -infm 
bounding box of vehicle: xmin -2.47489 -0.161927 0.0631, xmax 0 0.161927 0.5139m 
gts area: 4.03325 
yplus max: 4.07419, yplus min: 0.0828757 
position of yplus max: -2.47432 -0.160665 0.229698 
yplus prom: 0.965107 
forces: 0.110724 0.001172 -0.012848 
Drag coefficient: 0.823263 
torque (ref. CG): -0.000279 (roll) 0.010498 (pitch) -0.001451 (yaw) 
----------------------------------------------------- 
step 33, time 0.024750, maxvel 3.000000, total vol 359.697, vol(u>maxvel) 0, cell count 0
bounding box (containing cells with vel>maxvel): xmin inf inf inf, xmax -inf -inf -infm 
bounding box of vehicle: xmin -2.47489 -0.161927 0.0631, xmax 0 0.161927 0.5139m 
gts area: 4.03325 
yplus max: 4.07844, yplus min: 0.0761725 
position of yplus max: -2.47432 -0.160665 0.229698 
yplus prom: 0.966244 
forces: 0.111211 0.001173 -0.012943 
Drag coefficient: 0.826884 
torque (ref. CG): -0.000280 (roll) 0.010497 (pitch) -0.001452 (yaw) 
----------------------------------------------------- 
step 34, time 0.025500, maxvel 3.000000, total vol 359.697, vol(u>maxvel) 0, cell count 0
bounding box (containing cells with vel>maxvel): xmin inf inf inf, xmax -inf -inf -infm 
bounding box of vehicle: xmin -2.47489 -0.161927 0.0631, xmax 0 0.161927 0.5139m 
gts area: 4.03325 
yplus max: 4.08235, yplus min: 0.0788695 
position of yplus max: -2.47432 -0.160665 0.229698 
yplus prom: 0.967347 
forces: 0.111687 0.001173 -0.013037 
Drag coefficient: 0.830420 
torque (ref. CG): -0.000280 (roll) 0.010495 (pitch) -0.001452 (yaw) 
----------------------------------------------------- 
step 35, time 0.026250, maxvel 3.000000, total vol 359.697, vol(u>maxvel) 0, cell count 0
bounding box (containing cells with vel>maxvel): xmin inf inf inf, xmax -inf -inf -infm 
bounding box of vehicle: xmin -2.47489 -0.161927 0.0631, xmax 0 0.161927 0.5139m 
gts area: 4.03325 
yplus max: 4.08593, yplus min: 0.0878033 
position of yplus max: -2.47432 -0.160665 0.229698 
yplus prom: 0.968421 
forces: 0.112152 0.001174 -0.013130 
Drag coefficient: 0.833880 
torque (ref. CG): -0.000280 (roll) 0.010490 (pitch) -0.001453 (yaw) 
----------------------------------------------------- 
step 36, time 0.027000, maxvel 3.000000, total vol 359.697, vol(u>maxvel) 0, cell count 0
bounding box (containing cells with vel>maxvel): xmin inf inf inf, xmax -inf -inf -infm 
bounding box of vehicle: xmin -2.47489 -0.161927 0.0631, xmax 0 0.161927 0.5139m 
gts area: 4.03325 
yplus max: 4.08922, yplus min: 0.0719553 
position of yplus max: -2.47432 -0.160665 0.229698 
yplus prom: 0.969463 
forces: 0.112607 0.001175 -0.013222 
Drag coefficient: 0.837264 
torque (ref. CG): -0.000280 (roll) 0.010484 (pitch) -0.001454 (yaw) 
----------------------------------------------------- 
step 37, time 0.027750, maxvel 3.000000, total vol 359.697, vol(u>maxvel) 0, cell count 0
bounding box (containing cells with vel>maxvel): xmin inf inf inf, xmax -inf -inf -infm 
bounding box of vehicle: xmin -2.47489 -0.161927 0.0631, xmax 0 0.161927 0.5139m 
gts area: 4.03325 
yplus max: 4.09221, yplus min: 0.108575 
position of yplus max: -2.47432 -0.160665 0.229698 
yplus prom: 0.970474 
forces: 0.113052 0.001175 -0.013314 
Drag coefficient: 0.840573 
torque (ref. CG): -0.000280 (roll) 0.010477 (pitch) -0.001455 (yaw) 
----------------------------------------------------- 
step 38, time 0.028500, maxvel 3.000000, total vol 359.697, vol(u>maxvel) 0, cell count 0
bounding box (containing cells with vel>maxvel): xmin inf inf inf, xmax -inf -inf -infm 
bounding box of vehicle: xmin -2.47489 -0.161927 0.0631, xmax 0 0.161927 0.5139m 
gts area: 4.03325 
yplus max: 4.09489, yplus min: 0.118076 
position of yplus max: -2.47432 -0.160665 0.229698 
yplus prom: 0.971452 
forces: 0.113488 0.001176 -0.013404 
Drag coefficient: 0.843811 
torque (ref. CG): -0.000280 (roll) 0.010469 (pitch) -0.001455 (yaw) 
----------------------------------------------------- 
step 39, time 0.029250, maxvel 3.000000, total vol 359.697, vol(u>maxvel) 0, cell count 0
bounding box (containing cells with vel>maxvel): xmin inf inf inf, xmax -inf -inf -infm 
bounding box of vehicle: xmin -2.47489 -0.161927 0.0631, xmax 0 0.161927 0.5139m 
gts area: 4.03325 
yplus max: 4.09727, yplus min: 0.126839 
position of yplus max: -2.47432 -0.160665 0.229698 
yplus prom: 0.972397 
forces: 0.113913 0.001176 -0.013494 
Drag coefficient: 0.846975 
torque (ref. CG): -0.000280 (roll) 0.010459 (pitch) -0.001456 (yaw) 
----------------------------------------------------- 
step 40, time 0.030000, maxvel 3.000000, total vol 359.697, vol(u>maxvel) 0, cell count 0
bounding box (containing cells with vel>maxvel): xmin inf inf inf, xmax -inf -inf -infm 
bounding box of vehicle: xmin -2.47489 -0.161927 0.0631, xmax 0 0.161927 0.5139m 
gts area: 4.03325 
yplus max: 4.09939, yplus min: 0.0894462 
position of yplus max: -2.47432 -0.160665 0.229698 
yplus prom: 0.973309 
forces: 0.114329 0.001177 -0.013583 
Drag coefficient: 0.850063 
torque (ref. CG): -0.000281 (roll) 0.010448 (pitch) -0.001456 (yaw) 
----------------------------------------------------- 
step 41, time 0.030750, maxvel 3.000000, total vol 359.697, vol(u>maxvel) 0, cell count 0
bounding box (containing cells with vel>maxvel): xmin inf inf inf, xmax -inf -inf -infm 
bounding box of vehicle: xmin -2.47489 -0.161927 0.0631, xmax 0 0.161927 0.5139m 
gts area: 4.03325 
yplus max: 4.10125, yplus min: 0.132095 
position of yplus max: -2.47432 -0.160665 0.229698 
yplus prom: 0.974189 
forces: 0.114734 0.001177 -0.013672 
Drag coefficient: 0.853077 
torque (ref. CG): -0.000281 (roll) 0.010435 (pitch) -0.001457 (yaw) 
----------------------------------------------------- 
step 42, time 0.031500, maxvel 3.000000, total vol 359.697, vol(u>maxvel) 0, cell count 0
bounding box (containing cells with vel>maxvel): xmin inf inf inf, xmax -inf -inf -infm 
bounding box of vehicle: xmin -2.47489 -0.161927 0.0631, xmax 0 0.161927 0.5139m 
gts area: 4.03325 
yplus max: 4.10286, yplus min: 0.115411 
position of yplus max: -2.47432 -0.160665 0.229698 
yplus prom: 0.975035 
forces: 0.115130 0.001178 -0.013760 
Drag coefficient: 0.856021 
torque (ref. CG): -0.000281 (roll) 0.010420 (pitch) -0.001458 (yaw) 
----------------------------------------------------- 
step 43, time 0.032250, maxvel 3.000000, total vol 359.697, vol(u>maxvel) 0, cell count 0
bounding box (containing cells with vel>maxvel): xmin inf inf inf, xmax -inf -inf -infm 
bounding box of vehicle: xmin -2.47489 -0.161927 0.0631, xmax 0 0.161927 0.5139m 
gts area: 4.03325 
yplus max: 4.10425, yplus min: 0.110719 
position of yplus max: -2.47432 -0.160665 0.229698 
yplus prom: 0.975851 
forces: 0.115516 0.001178 -0.013848 
Drag coefficient: 0.858895 
torque (ref. CG): -0.000281 (roll) 0.010404 (pitch) -0.001458 (yaw) 
----------------------------------------------------- 
step 44, time 0.033000, maxvel 3.000000, total vol 359.697, vol(u>maxvel) 0, cell count 0
bounding box (containing cells with vel>maxvel): xmin inf inf inf, xmax -inf -inf -infm 
bounding box of vehicle: xmin -2.47489 -0.161927 0.0631, xmax 0 0.161927 0.5139m 
gts area: 4.03325 
yplus max: 4.10537, yplus min: 0.102257 
position of yplus max: -2.47432 -0.160665 0.229698 
yplus prom: 0.976635 
forces: 0.115893 0.001179 -0.013935 
Drag coefficient: 0.861697 
torque (ref. CG): -0.000281 (roll) 0.010385 (pitch) -0.001459 (yaw) 
----------------------------------------------------- 
step 45, time 0.033750, maxvel 3.000000, total vol 359.697, vol(u>maxvel) 0, cell count 0
bounding box (containing cells with vel>maxvel): xmin inf inf inf, xmax -inf -inf -infm 
bounding box of vehicle: xmin -2.47489 -0.161927 0.0631, xmax 0 0.161927 0.5139m 
gts area: 4.03325 
yplus max: 4.10625, yplus min: 0.0636774 
position of yplus max: -2.47432 -0.160665 0.229698 
yplus prom: 0.977385 
forces: 0.116261 0.001179 -0.014022 
Drag coefficient: 0.864429 
torque (ref. CG): -0.000281 (roll) 0.010365 (pitch) -0.001459 (yaw) 
----------------------------------------------------- 
step 46, time 0.034500, maxvel 3.000000, total vol 359.697, vol(u>maxvel) 0, cell count 0
bounding box (containing cells with vel>maxvel): xmin inf inf inf, xmax -inf -inf -infm 
bounding box of vehicle: xmin -2.47489 -0.161927 0.0631, xmax 0 0.161927 0.5139m 
gts area: 4.03325 
yplus max: 4.1069, yplus min: 0.0760275 
position of yplus max: -2.47432 -0.160665 0.229698 
yplus prom: 0.978107 
forces: 0.116619 0.001179 -0.014108 
Drag coefficient: 0.867091 
torque (ref. CG): -0.000281 (roll) 0.010344 (pitch) -0.001459 (yaw) 
----------------------------------------------------- 
step 47, time 0.035250, maxvel 3.000000, total vol 359.697, vol(u>maxvel) 0, cell count 0
bounding box (containing cells with vel>maxvel): xmin inf inf inf, xmax -inf -inf -infm 
bounding box of vehicle: xmin -2.47489 -0.161927 0.0631, xmax 0 0.161927 0.5139m 
gts area: 4.03325 
yplus max: 4.10733, yplus min: 0.112156 
position of yplus max: -2.47432 -0.160665 0.229698 
yplus prom: 0.978799 
forces: 0.116967 0.001179 -0.014194 
Drag coefficient: 0.869683 
torque (ref. CG): -0.000281 (roll) 0.010322 (pitch) -0.001459 (yaw) 
----------------------------------------------------- 
step 48, time 0.036000, maxvel 3.000000, total vol 359.697, vol(u>maxvel) 0, cell count 0
bounding box (containing cells with vel>maxvel): xmin inf inf inf, xmax -inf -inf -infm 
bounding box of vehicle: xmin -2.47489 -0.161927 0.0631, xmax 0 0.161927 0.5139m 
gts area: 4.03325 
yplus max: 4.10756, yplus min: 0.12056 
position of yplus max: -2.47432 -0.160665 0.229698 
yplus prom: 0.97946 
forces: 0.117307 0.001179 -0.014279 
Drag coefficient: 0.872206 
torque (ref. CG): -0.000281 (roll) 0.010298 (pitch) -0.001459 (yaw) 
----------------------------------------------------- 
step 49, time 0.036750, maxvel 3.000000, total vol 359.697, vol(u>maxvel) 0, cell count 0
bounding box (containing cells with vel>maxvel): xmin inf inf inf, xmax -inf -inf -infm 
bounding box of vehicle: xmin -2.47489 -0.161927 0.0631, xmax 0 0.161927 0.5139m 
gts area: 4.03325 
yplus max: 4.1076, yplus min: 0.0973962 
position of yplus max: -2.47432 -0.160665 0.229698 
yplus prom: 0.980089 
forces: 0.117637 0.001179 -0.014363 
Drag coefficient: 0.874660 
torque (ref. CG): -0.000281 (roll) 0.010272 (pitch) -0.001459 (yaw) 
----------------------------------------------------- 
step 50, time 0.037500, maxvel 3.000000, total vol 359.697, vol(u>maxvel) 0, cell count 0
bounding box (containing cells with vel>maxvel): xmin inf inf inf, xmax -inf -inf -infm 
bounding box of vehicle: xmin -2.47489 -0.161927 0.0631, xmax 0 0.161927 0.5139m 
gts area: 4.03325 
yplus max: 4.10746, yplus min: 0.0694942 
position of yplus max: -2.47432 -0.160665 0.229698 
yplus prom: 0.980687 
forces: 0.117958 0.001179 -0.014447 
Drag coefficient: 0.877047 
torque (ref. CG): -0.000281 (roll) 0.010245 (pitch) -0.001459 (yaw) 
----------------------------------------------------- 
step 51, time 0.038250, maxvel 3.000000, total vol 359.697, vol(u>maxvel) 0, cell count 0
bounding box (containing cells with vel>maxvel): xmin inf inf inf, xmax -inf -inf -infm 
bounding box of vehicle: xmin -2.47489 -0.161927 0.0631, xmax 0 0.161927 0.5139m 
gts area: 4.03325 
yplus max: 4.10715, yplus min: 0.0795647 
position of yplus max: -2.47432 -0.160665 0.229698 
yplus prom: 0.981257 
forces: 0.118270 0.001179 -0.014530 
Drag coefficient: 0.879370 
torque (ref. CG): -0.000281 (roll) 0.010217 (pitch) -0.001460 (yaw) 
----------------------------------------------------- 
step 52, time 0.039000, maxvel 3.000000, total vol 359.697, vol(u>maxvel) 0, cell count 0
bounding box (containing cells with vel>maxvel): xmin inf inf inf, xmax -inf -inf -infm 
bounding box of vehicle: xmin -2.47489 -0.161927 0.0631, xmax 0 0.161927 0.5139m 
gts area: 4.03325 
yplus max: 4.10669, yplus min: 0.104147 
position of yplus max: -2.47432 -0.160665 0.229698 
yplus prom: 0.981798 
forces: 0.118574 0.001180 -0.014612 
Drag coefficient: 0.881629 
torque (ref. CG): -0.000281 (roll) 0.010187 (pitch) -0.001460 (yaw) 
----------------------------------------------------- 
step 53, time 0.039750, maxvel 3.000000, total vol 359.697, vol(u>maxvel) 0, cell count 0
bounding box (containing cells with vel>maxvel): xmin inf inf inf, xmax -inf -inf -infm 
bounding box of vehicle: xmin -2.47489 -0.161927 0.0631, xmax 0 0.161927 0.5139m 
gts area: 4.03325 
yplus max: 4.10609, yplus min: 0.100196 
position of yplus max: -2.47432 -0.160665 0.229698 
yplus prom: 0.982313 
forces: 0.118870 0.001180 -0.014693 
Drag coefficient: 0.883827 
torque (ref. CG): -0.000281 (roll) 0.010157 (pitch) -0.001460 (yaw) 
----------------------------------------------------- 
step 54, time 0.040500, maxvel 3.000000, total vol 359.697, vol(u>maxvel) 0, cell count 0
bounding box (containing cells with vel>maxvel): xmin inf inf inf, xmax -inf -inf -infm 
bounding box of vehicle: xmin -2.47489 -0.161927 0.0631, xmax 0 0.161927 0.5139m 
gts area: 4.03325 
yplus max: 4.10536, yplus min: 0.0963982 
position of yplus max: -2.47432 -0.160665 0.229698 
yplus prom: 0.982799 
forces: 0.119157 0.001180 -0.014774 
Drag coefficient: 0.885964 
torque (ref. CG): -0.000281 (roll) 0.010125 (pitch) -0.001460 (yaw) 
----------------------------------------------------- 
step 55, time 0.041250, maxvel 3.000000, total vol 359.697, vol(u>maxvel) 0, cell count 0
bounding box (containing cells with vel>maxvel): xmin inf inf inf, xmax -inf -inf -infm 
bounding box of vehicle: xmin -2.47489 -0.161927 0.0631, xmax 0 0.161927 0.5139m 
gts area: 4.03325 
yplus max: 4.1045, yplus min: 0.0928273 
position of yplus max: -2.47432 -0.160665 0.229698 
yplus prom: 0.983258 
forces: 0.119436 0.001179 -0.014854 
Drag coefficient: 0.888041 
torque (ref. CG): -0.000281 (roll) 0.010093 (pitch) -0.001459 (yaw) 
----------------------------------------------------- 
step 56, time 0.042000, maxvel 3.000000, total vol 359.697, vol(u>maxvel) 0, cell count 0
bounding box (containing cells with vel>maxvel): xmin inf inf inf, xmax -inf -inf -infm 
bounding box of vehicle: xmin -2.47489 -0.161927 0.0631, xmax 0 0.161927 0.5139m 
gts area: 4.03325 
yplus max: 4.10352, yplus min: 0.0785453 
position of yplus max: -2.47432 -0.160665 0.229698 
yplus prom: 0.983688 
forces: 0.119708 0.001179 -0.014934 
Drag coefficient: 0.890058 
torque (ref. CG): -0.000281 (roll) 0.010059 (pitch) -0.001458 (yaw) 
----------------------------------------------------- 
step 57, time 0.042750, maxvel 3.000000, total vol 359.697, vol(u>maxvel) 0, cell count 0
bounding box (containing cells with vel>maxvel): xmin inf inf inf, xmax -inf -inf -infm 
bounding box of vehicle: xmin -2.47489 -0.161927 0.0631, xmax 0 0.161927 0.5139m 
gts area: 4.03325 
yplus max: 4.10242, yplus min: 0.0549437 
position of yplus max: -2.47432 -0.160665 0.229698 
yplus prom: 0.984095 
forces: 0.119971 0.001178 -0.015012 
Drag coefficient: 0.892018 
torque (ref. CG): -0.000281 (roll) 0.010025 (pitch) -0.001458 (yaw) 
----------------------------------------------------- 
step 58, time 0.043500, maxvel 3.000000, total vol 359.697, vol(u>maxvel) 0, cell count 0
bounding box (containing cells with vel>maxvel): xmin inf inf inf, xmax -inf -inf -infm 
bounding box of vehicle: xmin -2.47489 -0.161927 0.0631, xmax 0 0.161927 0.5139m 
gts area: 4.03325 
yplus max: 4.10122, yplus min: 0.0674585 
position of yplus max: -2.47432 -0.160665 0.229698 
yplus prom: 0.98448 
forces: 0.120227 0.001178 -0.015090 
Drag coefficient: 0.893921 
torque (ref. CG): -0.000281 (roll) 0.009990 (pitch) -0.001457 (yaw) 
----------------------------------------------------- 
step 59, time 0.044250, maxvel 3.000000, total vol 359.697, vol(u>maxvel) 0, cell count 0
bounding box (containing cells with vel>maxvel): xmin inf inf inf, xmax -inf -inf -infm 
bounding box of vehicle: xmin -2.47489 -0.161927 0.0631, xmax 0 0.161927 0.5139m 
gts area: 4.03325 
yplus max: 4.10002, yplus min: 0.0829543 
position of yplus max: -2.47443 -0.160585 0.219887 
yplus prom: 0.984842 
forces: 0.120475 0.001177 -0.015167 
Drag coefficient: 0.895766 
torque (ref. CG): -0.000281 (roll) 0.009954 (pitch) -0.001457 (yaw) 
----------------------------------------------------- 
step 60, time 0.045000, maxvel 3.000000, total vol 359.697, vol(u>maxvel) 0, cell count 0
bounding box (containing cells with vel>maxvel): xmin inf inf inf, xmax -inf -inf -infm 
bounding box of vehicle: xmin -2.47489 -0.161927 0.0631, xmax 0 0.161927 0.5139m 
gts area: 4.03325 
yplus max: 4.09885, yplus min: 0.0821622 
position of yplus max: -2.47443 -0.160585 0.219887 
yplus prom: 0.985177 
forces: 0.120716 0.001177 -0.015244 
Drag coefficient: 0.897554 
torque (ref. CG): -0.000281 (roll) 0.009916 (pitch) -0.001456 (yaw) 
----------------------------------------------------- 
step 61, time 0.045750, maxvel 3.000000, total vol 359.697, vol(u>maxvel) 0, cell count 0
bounding box (containing cells with vel>maxvel): xmin inf inf inf, xmax -inf -inf -infm 
bounding box of vehicle: xmin -2.47489 -0.161927 0.0631, xmax 0 0.161927 0.5139m 
gts area: 4.03325 
yplus max: 4.09765, yplus min: 0.0786477 
position of yplus max: -2.47422 0.16113 0.106396 
yplus prom: 0.985485 
forces: 0.120949 0.001176 -0.015319 
Drag coefficient: 0.899287 
torque (ref. CG): -0.000280 (roll) 0.009878 (pitch) -0.001456 (yaw) 
----------------------------------------------------- 
step 62, time 0.046500, maxvel 3.000000, total vol 359.697, vol(u>maxvel) 0, cell count 0
bounding box (containing cells with vel>maxvel): xmin inf inf inf, xmax -inf -inf -infm 
bounding box of vehicle: xmin -2.47489 -0.161927 0.0631, xmax 0 0.161927 0.5139m 
gts area: 4.03325 
yplus max: 4.09694, yplus min: 0.076048 
position of yplus max: -2.47422 0.16113 0.106396 
yplus prom: 0.985766 
forces: 0.121175 0.001176 -0.015395 
Drag coefficient: 0.900965 
torque (ref. CG): -0.000280 (roll) 0.009839 (pitch) -0.001455 (yaw) 
----------------------------------------------------- 
step 63, time 0.047250, maxvel 3.000000, total vol 359.697, vol(u>maxvel) 0, cell count 0
bounding box (containing cells with vel>maxvel): xmin inf inf inf, xmax -inf -inf -infm 
bounding box of vehicle: xmin -2.47489 -0.161927 0.0631, xmax 0 0.161927 0.5139m 
gts area: 4.03325 
yplus max: 4.09618, yplus min: 0.0689726 
position of yplus max: -2.47422 0.16113 0.106396 
yplus prom: 0.986022 
forces: 0.121393 0.001175 -0.015469 
Drag coefficient: 0.902590 
torque (ref. CG): -0.000280 (roll) 0.009799 (pitch) -0.001454 (yaw) 
----------------------------------------------------- 
step 64, time 0.048000, maxvel 3.000000, total vol 359.697, vol(u>maxvel) 0, cell count 0
bounding box (containing cells with vel>maxvel): xmin inf inf inf, xmax -inf -inf -infm 
bounding box of vehicle: xmin -2.47489 -0.161927 0.0631, xmax 0 0.161927 0.5139m 
gts area: 4.03325 
yplus max: 4.09538, yplus min: 0.0724115 
position of yplus max: -2.47422 0.16113 0.106396 
yplus prom: 0.986256 
forces: 0.121605 0.001175 -0.015542 
Drag coefficient: 0.904163 
torque (ref. CG): -0.000280 (roll) 0.009758 (pitch) -0.001454 (yaw) 
----------------------------------------------------- 
step 65, time 0.048750, maxvel 3.000000, total vol 359.697, vol(u>maxvel) 0, cell count 0
bounding box (containing cells with vel>maxvel): xmin inf inf inf, xmax -inf -inf -infm 
bounding box of vehicle: xmin -2.47489 -0.161927 0.0631, xmax 0 0.161927 0.5139m 
gts area: 4.03325 
yplus max: 4.09455, yplus min: 0.0634744 
position of yplus max: -2.47422 0.16113 0.106396 
yplus prom: 0.986466 
forces: 0.121810 0.001174 -0.015615 
Drag coefficient: 0.905688 
torque (ref. CG): -0.000280 (roll) 0.009717 (pitch) -0.001453 (yaw) 
----------------------------------------------------- 
step 66, time 0.049500, maxvel 3.000000, total vol 359.697, vol(u>maxvel) 0, cell count 0
bounding box (containing cells with vel>maxvel): xmin inf inf inf, xmax -inf -inf -infm 
bounding box of vehicle: xmin -2.47489 -0.161927 0.0631, xmax 0 0.161927 0.5139m 
gts area: 4.03325 
yplus max: 4.09368, yplus min: 0.0792997 
position of yplus max: -2.47422 0.16113 0.106396 
yplus prom: 0.986655 
forces: 0.122008 0.001173 -0.015688 
Drag coefficient: 0.907165 
torque (ref. CG): -0.000280 (roll) 0.009675 (pitch) -0.001452 (yaw) 
----------------------------------------------------- 
step 67, time 0.050250, maxvel 3.000000, total vol 359.697, vol(u>maxvel) 0, cell count 0
bounding box (containing cells with vel>maxvel): xmin inf inf inf, xmax -inf -inf -infm 
bounding box of vehicle: xmin -2.47489 -0.161927 0.0631, xmax 0 0.161927 0.5139m 
gts area: 4.03325 
yplus max: 4.09277, yplus min: 0.0795188 
position of yplus max: -2.47422 0.16113 0.106396 
yplus prom: 0.98682 
forces: 0.122201 0.001172 -0.015760 
Drag coefficient: 0.908596 
torque (ref. CG): -0.000279 (roll) 0.009632 (pitch) -0.001451 (yaw) 
----------------------------------------------------- 
step 68, time 0.051000, maxvel 3.000000, total vol 359.697, vol(u>maxvel) 0, cell count 0
bounding box (containing cells with vel>maxvel): xmin inf inf inf, xmax -inf -inf -infm 
bounding box of vehicle: xmin -2.47489 -0.161927 0.0631, xmax 0 0.161927 0.5139m 
gts area: 4.03325 
yplus max: 4.09184, yplus min: 0.0756618 
position of yplus max: -2.47422 0.16113 0.106396 
yplus prom: 0.986964 
forces: 0.122387 0.001172 -0.015831 
Drag coefficient: 0.909980 
torque (ref. CG): -0.000279 (roll) 0.009588 (pitch) -0.001450 (yaw) 
----------------------------------------------------- 
step 69, time 0.051750, maxvel 3.000000, total vol 359.697, vol(u>maxvel) 0, cell count 0
bounding box (containing cells with vel>maxvel): xmin inf inf inf, xmax -inf -inf -infm 
bounding box of vehicle: xmin -2.47489 -0.161927 0.0631, xmax 0 0.161927 0.5139m 
gts area: 4.03325 
yplus max: 4.09087, yplus min: 0.0693931 
position of yplus max: -2.47422 0.16113 0.106396 
yplus prom: 0.987084 
forces: 0.122567 0.001171 -0.015901 
Drag coefficient: 0.911318 
torque (ref. CG): -0.000279 (roll) 0.009544 (pitch) -0.001448 (yaw) 
----------------------------------------------------- 
step 70, time 0.052500, maxvel 3.000000, total vol 359.697, vol(u>maxvel) 0, cell count 0
bounding box (containing cells with vel>maxvel): xmin inf inf inf, xmax -inf -inf -infm 
bounding box of vehicle: xmin -2.47489 -0.161927 0.0631, xmax 0 0.161927 0.5139m 
gts area: 4.03325 
yplus max: 4.08989, yplus min: 0.0514478 
position of yplus max: -2.47422 0.16113 0.106396 
yplus prom: 0.987183 
forces: 0.122741 0.001169 -0.015971 
Drag coefficient: 0.912611 
torque (ref. CG): -0.000279 (roll) 0.009499 (pitch) -0.001447 (yaw) 
----------------------------------------------------- 
step 71, time 0.053250, maxvel 3.000000, total vol 359.697, vol(u>maxvel) 0, cell count 0
bounding box (containing cells with vel>maxvel): xmin inf inf inf, xmax -inf -inf -infm 
bounding box of vehicle: xmin -2.47489 -0.161927 0.0631, xmax 0 0.161927 0.5139m 
gts area: 4.03325 
yplus max: 4.08888, yplus min: 0.0243698 
position of yplus max: -2.47422 0.16113 0.106396 
yplus prom: 0.98726 
forces: 0.122909 0.001168 -0.016040 
Drag coefficient: 0.913862 
torque (ref. CG): -0.000279 (roll) 0.009454 (pitch) -0.001446 (yaw) 
----------------------------------------------------- 
step 72, time 0.054000, maxvel 3.000000, total vol 359.697, vol(u>maxvel) 0, cell count 0
bounding box (containing cells with vel>maxvel): xmin inf inf inf, xmax -inf -inf -infm 
bounding box of vehicle: xmin -2.47489 -0.161927 0.0631, xmax 0 0.161927 0.5139m 
gts area: 4.03325 
yplus max: 4.08785, yplus min: 0.0418521 
position of yplus max: -2.47422 0.16113 0.106396 
yplus prom: 0.987319 
forces: 0.123072 0.001167 -0.016108 
Drag coefficient: 0.915070 
torque (ref. CG): -0.000278 (roll) 0.009408 (pitch) -0.001444 (yaw) 
----------------------------------------------------- 
step 73, time 0.054750, maxvel 3.000000, total vol 359.697, vol(u>maxvel) 0, cell count 0
bounding box (containing cells with vel>maxvel): xmin inf inf inf, xmax -inf -inf -infm 
bounding box of vehicle: xmin -2.47489 -0.161927 0.0631, xmax 0 0.161927 0.5139m 
gts area: 4.03325 
yplus max: 4.08681, yplus min: 0.0366012 
position of yplus max: -2.47422 0.16113 0.106396 
yplus prom: 0.987357 
forces: 0.123229 0.001166 -0.016175 
Drag coefficient: 0.916238 
torque (ref. CG): -0.000278 (roll) 0.009362 (pitch) -0.001443 (yaw) 
----------------------------------------------------- 
step 74, time 0.055500, maxvel 3.000000, total vol 359.697, vol(u>maxvel) 0, cell count 0
bounding box (containing cells with vel>maxvel): xmin inf inf inf, xmax -inf -inf -infm 
bounding box of vehicle: xmin -2.47489 -0.161927 0.0631, xmax 0 0.161927 0.5139m 
gts area: 4.03325 
yplus max: 4.08575, yplus min: 0.0418092 
position of yplus max: -2.47422 0.16113 0.106396 
yplus prom: 0.987374 
forces: 0.123380 0.001165 -0.016242 
Drag coefficient: 0.917366 
torque (ref. CG): -0.000278 (roll) 0.009316 (pitch) -0.001441 (yaw) 
----------------------------------------------------- 
step 75, time 0.056250, maxvel 3.000000, total vol 359.697, vol(u>maxvel) 0, cell count 0
bounding box (containing cells with vel>maxvel): xmin inf inf inf, xmax -inf -inf -infm 
bounding box of vehicle: xmin -2.47489 -0.161927 0.0631, xmax 0 0.161927 0.5139m 
gts area: 4.03325 
yplus max: 4.08468, yplus min: 0.0328803 
position of yplus max: -2.47422 0.16113 0.106396 
yplus prom: 0.987369 
forces: 0.123527 0.001164 -0.016308 
Drag coefficient: 0.918453 
torque (ref. CG): -0.000277 (roll) 0.009269 (pitch) -0.001440 (yaw) 
----------------------------------------------------- 
step 76, time 0.057000, maxvel 3.000000, total vol 359.697, vol(u>maxvel) 0, cell count 0
bounding box (containing cells with vel>maxvel): xmin inf inf inf, xmax -inf -inf -infm 
bounding box of vehicle: xmin -2.47489 -0.161927 0.0631, xmax 0 0.161927 0.5139m 
gts area: 4.03325 
yplus max: 4.08361, yplus min: 0.0597805 
position of yplus max: -2.47422 0.16113 0.106396 
yplus prom: 0.987347 
forces: 0.123668 0.001162 -0.016373 
Drag coefficient: 0.919502 
torque (ref. CG): -0.000277 (roll) 0.009222 (pitch) -0.001438 (yaw) 
----------------------------------------------------- 
step 77, time 0.057750, maxvel 3.000000, total vol 359.697, vol(u>maxvel) 0, cell count 0
bounding box (containing cells with vel>maxvel): xmin inf inf inf, xmax -inf -inf -infm 
bounding box of vehicle: xmin -2.47489 -0.161927 0.0631, xmax 0 0.161927 0.5139m 
gts area: 4.03325 
yplus max: 4.08252, yplus min: 0.0487859 
position of yplus max: -2.47422 0.16113 0.106396 
yplus prom: 0.987305 
forces: 0.123804 0.001161 -0.016438 
Drag coefficient: 0.920515 
torque (ref. CG): -0.000277 (roll) 0.009174 (pitch) -0.001437 (yaw) 
----------------------------------------------------- 
step 78, time 0.058500, maxvel 3.000000, total vol 359.697, vol(u>maxvel) 0, cell count 0
bounding box (containing cells with vel>maxvel): xmin inf inf inf, xmax -inf -inf -infm 
bounding box of vehicle: xmin -2.47489 -0.161927 0.0631, xmax 0 0.161927 0.5139m 
gts area: 4.03325 
yplus max: 4.08143, yplus min: 0.0515143 
position of yplus max: -2.47422 0.16113 0.106396 
yplus prom: 0.987246 
forces: 0.123935 0.001160 -0.016502 
Drag coefficient: 0.921491 
torque (ref. CG): -0.000277 (roll) 0.009127 (pitch) -0.001435 (yaw) 
----------------------------------------------------- 
step 79, time 0.059250, maxvel 3.000000, total vol 359.697, vol(u>maxvel) 0, cell count 0
bounding box (containing cells with vel>maxvel): xmin inf inf inf, xmax -inf -inf -infm 
bounding box of vehicle: xmin -2.47489 -0.161927 0.0631, xmax 0 0.161927 0.5139m 
gts area: 4.03325 
yplus max: 4.08033, yplus min: 0.0576289 
position of yplus max: -2.47422 0.16113 0.106396 
yplus prom: 0.987172 
forces: 0.124062 0.001159 -0.016565 
Drag coefficient: 0.922432 
torque (ref. CG): -0.000276 (roll) 0.009078 (pitch) -0.001434 (yaw) 
----------------------------------------------------- 
step 80, time 0.060000, maxvel 3.000000, total vol 359.697, vol(u>maxvel) 0, cell count 0
bounding box (containing cells with vel>maxvel): xmin inf inf inf, xmax -inf -inf -infm 
bounding box of vehicle: xmin -2.47489 -0.161927 0.0631, xmax 0 0.161927 0.5139m 
gts area: 4.03325 
yplus max: 4.07922, yplus min: 0.0632302 
position of yplus max: -2.47422 0.16113 0.106396 
yplus prom: 0.987084 
forces: 0.124184 0.001158 -0.016628 
Drag coefficient: 0.923339 
torque (ref. CG): -0.000276 (roll) 0.009030 (pitch) -0.001432 (yaw) 
----------------------------------------------------- 
step 81, time 0.060750, maxvel 3.000000, total vol 359.697, vol(u>maxvel) 0, cell count 0
bounding box (containing cells with vel>maxvel): xmin inf inf inf, xmax -inf -inf -infm 
bounding box of vehicle: xmin -2.47489 -0.161927 0.0631, xmax 0 0.161927 0.5139m 
gts area: 4.03325 
yplus max: 4.07812, yplus min: 0.0696043 
position of yplus max: -2.47422 0.16113 0.106396 
yplus prom: 0.986981 
forces: 0.124301 0.001157 -0.016690 
Drag coefficient: 0.924212 
torque (ref. CG): -0.000276 (roll) 0.008981 (pitch) -0.001431 (yaw) 
----------------------------------------------------- 
step 82, time 0.061500, maxvel 3.000000, total vol 359.697, vol(u>maxvel) 0, cell count 0
bounding box (containing cells with vel>maxvel): xmin inf inf inf, xmax -inf -inf -infm 
bounding box of vehicle: xmin -2.47489 -0.161927 0.0631, xmax 0 0.161927 0.5139m 
gts area: 4.03325 
yplus max: 4.07701, yplus min: 0.0767475 
position of yplus max: -2.47422 0.16113 0.106396 
yplus prom: 0.986862 
forces: 0.124414 0.001156 -0.016752 
Drag coefficient: 0.925053 
torque (ref. CG): -0.000276 (roll) 0.008932 (pitch) -0.001430 (yaw) 
----------------------------------------------------- 
step 83, time 0.062250, maxvel 3.000000, total vol 359.697, vol(u>maxvel) 0, cell count 0
bounding box (containing cells with vel>maxvel): xmin inf inf inf, xmax -inf -inf -infm 
bounding box of vehicle: xmin -2.47489 -0.161927 0.0631, xmax 0 0.161927 0.5139m 
gts area: 4.03325 
yplus max: 4.0759, yplus min: 0.039911 
position of yplus max: -2.47422 0.16113 0.106396 
yplus prom: 0.986727 
forces: 0.124523 0.001155 -0.016813 
Drag coefficient: 0.925862 
torque (ref. CG): -0.000275 (roll) 0.008882 (pitch) -0.001430 (yaw) 
----------------------------------------------------- 
step 84, time 0.063000, maxvel 3.000000, total vol 359.697, vol(u>maxvel) 0, cell count 0
bounding box (containing cells with vel>maxvel): xmin inf inf inf, xmax -inf -inf -infm 
bounding box of vehicle: xmin -2.47489 -0.161927 0.0631, xmax 0 0.161927 0.5139m 
gts area: 4.03325 
yplus max: 4.07479, yplus min: 0.0877399 
position of yplus max: -2.47422 0.16113 0.106396 
yplus prom: 0.986576 
forces: 0.124628 0.001155 -0.016873 
Drag coefficient: 0.926639 
torque (ref. CG): -0.000275 (roll) 0.008832 (pitch) -0.001429 (yaw) 
----------------------------------------------------- 
step 85, time 0.063750, maxvel 3.000000, total vol 359.697, vol(u>maxvel) 0, cell count 0
bounding box (containing cells with vel>maxvel): xmin inf inf inf, xmax -inf -inf -infm 
bounding box of vehicle: xmin -2.47489 -0.161927 0.0631, xmax 0 0.161927 0.5139m 
gts area: 4.03325 
yplus max: 4.07368, yplus min: 0.0972068 
position of yplus max: -2.47422 0.16113 0.106396 
yplus prom: 0.98641 
forces: 0.124728 0.001154 -0.016933 
Drag coefficient: 0.927385 
torque (ref. CG): -0.000275 (roll) 0.008782 (pitch) -0.001428 (yaw) 
----------------------------------------------------- 
step 86, time 0.064500, maxvel 3.000000, total vol 359.697, vol(u>maxvel) 0, cell count 0
bounding box (containing cells with vel>maxvel): xmin inf inf inf, xmax -inf -inf -infm 
bounding box of vehicle: xmin -2.47489 -0.161927 0.0631, xmax 0 0.161927 0.5139m 
gts area: 4.03325 
yplus max: 4.07257, yplus min: 0.103328 
position of yplus max: -2.47422 0.16113 0.106396 
yplus prom: 0.98623 
forces: 0.124824 0.001153 -0.016992 
Drag coefficient: 0.928097 
torque (ref. CG): -0.000275 (roll) 0.008732 (pitch) -0.001426 (yaw) 
----------------------------------------------------- 
step 87, time 0.065250, maxvel 3.000000, total vol 359.697, vol(u>maxvel) 0, cell count 0
bounding box (containing cells with vel>maxvel): xmin inf inf inf, xmax -inf -inf -infm 
bounding box of vehicle: xmin -2.47489 -0.161927 0.0631, xmax 0 0.161927 0.5139m 
gts area: 4.03325 
yplus max: 4.07145, yplus min: 0.100405 
position of yplus max: -2.47422 0.16113 0.106396 
yplus prom: 0.986034 
forces: 0.124917 0.001153 -0.017052 
Drag coefficient: 0.928794 
torque (ref. CG): -0.000275 (roll) 0.008681 (pitch) -0.001427 (yaw) 
----------------------------------------------------- 
step 88, time 0.066000, maxvel 3.000000, total vol 359.697, vol(u>maxvel) 0, cell count 0
bounding box (containing cells with vel>maxvel): xmin inf inf inf, xmax -inf -inf -infm 
bounding box of vehicle: xmin -2.47489 -0.161927 0.0631, xmax 0 0.161927 0.5139m 
gts area: 4.03325 
yplus max: 4.07035, yplus min: 0.102365 
position of yplus max: -2.47422 0.16113 0.106396 
yplus prom: 0.985825 
forces: 0.125005 0.001152 -0.017109 
Drag coefficient: 0.929446 
torque (ref. CG): -0.000275 (roll) 0.008631 (pitch) -0.001426 (yaw) 
----------------------------------------------------- 
step 89, time 0.066750, maxvel 3.000000, total vol 359.697, vol(u>maxvel) 0, cell count 0
bounding box (containing cells with vel>maxvel): xmin inf inf inf, xmax -inf -inf -infm 
bounding box of vehicle: xmin -2.47489 -0.161927 0.0631, xmax 0 0.161927 0.5139m 
gts area: 4.03325 
yplus max: 4.06924, yplus min: 0.0647981 
position of yplus max: -2.47422 0.16113 0.106396 
yplus prom: 0.985602 
forces: 0.125089 0.001152 -0.017166 
Drag coefficient: 0.930073 
torque (ref. CG): -0.000275 (roll) 0.008580 (pitch) -0.001426 (yaw) 
----------------------------------------------------- 
step 90, time 0.067500, maxvel 3.000000, total vol 359.697, vol(u>maxvel) 0, cell count 0
bounding box (containing cells with vel>maxvel): xmin inf inf inf, xmax -inf -inf -infm 
bounding box of vehicle: xmin -2.47489 -0.161927 0.0631, xmax 0 0.161927 0.5139m 
gts area: 4.03325 
yplus max: 4.06813, yplus min: 0.11981 
position of yplus max: -2.47422 0.16113 0.106396 
yplus prom: 0.985367 
forces: 0.125171 0.001150 -0.017224 
Drag coefficient: 0.930676 
torque (ref. CG): -0.000274 (roll) 0.008528 (pitch) -0.001423 (yaw) 
----------------------------------------------------- 
step 91, time 0.068250, maxvel 3.000000, total vol 359.697, vol(u>maxvel) 0, cell count 0
bounding box (containing cells with vel>maxvel): xmin inf inf inf, xmax -inf -inf -infm 
bounding box of vehicle: xmin -2.47489 -0.161927 0.0631, xmax 0 0.161927 0.5139m 
gts area: 4.03325 
yplus max: 4.06703, yplus min: 0.129415 
position of yplus max: -2.47422 0.16113 0.106396 
yplus prom: 0.985118 
forces: 0.125248 0.001150 -0.017279 
Drag coefficient: 0.931249 
torque (ref. CG): -0.000274 (roll) 0.008477 (pitch) -0.001423 (yaw) 
----------------------------------------------------- 
step 92, time 0.069000, maxvel 3.000000, total vol 359.697, vol(u>maxvel) 0, cell count 0
bounding box (containing cells with vel>maxvel): xmin inf inf inf, xmax -inf -inf -infm 
bounding box of vehicle: xmin -2.47489 -0.161927 0.0631, xmax 0 0.161927 0.5139m 
gts area: 4.03325 
yplus max: 4.06593, yplus min: 0.133911 
position of yplus max: -2.47422 0.16113 0.106396 
yplus prom: 0.984858 
forces: 0.125321 0.001148 -0.017336 
Drag coefficient: 0.931798 
torque (ref. CG): -0.000274 (roll) 0.008425 (pitch) -0.001421 (yaw) 
----------------------------------------------------- 
step 93, time 0.069750, maxvel 3.000000, total vol 359.697, vol(u>maxvel) 0, cell count 0
bounding box (containing cells with vel>maxvel): xmin inf inf inf, xmax -inf -inf -infm 
bounding box of vehicle: xmin -2.47489 -0.161927 0.0631, xmax 0 0.161927 0.5139m 
gts area: 4.03325 
yplus max: 4.06484, yplus min: 0.111457 
position of yplus max: -2.47422 0.16113 0.106396 
yplus prom: 0.984585 
forces: 0.125392 0.001148 -0.017391 
Drag coefficient: 0.932320 
torque (ref. CG): -0.000274 (roll) 0.008374 (pitch) -0.001421 (yaw) 
----------------------------------------------------- 
step 94, time 0.070500, maxvel 3.000000, total vol 359.697, vol(u>maxvel) 0, cell count 0
bounding box (containing cells with vel>maxvel): xmin inf inf inf, xmax -inf -inf -infm 
bounding box of vehicle: xmin -2.47489 -0.161927 0.0631, xmax 0 0.161927 0.5139m 
gts area: 4.03325 
yplus max: 4.06375, yplus min: 0.0503163 
position of yplus max: -2.47422 0.16113 0.106396 
yplus prom: 0.9843 
forces: 0.125460 0.001149 -0.017448 
Drag coefficient: 0.932832 
torque (ref. CG): -0.000274 (roll) 0.008320 (pitch) -0.001421 (yaw) 
----------------------------------------------------- 
step 95, time 0.071250, maxvel 3.000000, total vol 359.697, vol(u>maxvel) 0, cell count 0
bounding box (containing cells with vel>maxvel): xmin inf inf inf, xmax -inf -inf -infm 
bounding box of vehicle: xmin -2.47489 -0.161927 0.0631, xmax 0 0.161927 0.5139m 
gts area: 4.03325 
yplus max: 4.06267, yplus min: 0.0945018 
position of yplus max: -2.47422 0.16113 0.106396 
yplus prom: 0.984007 
forces: 0.125519 0.001144 -0.017498 
Drag coefficient: 0.933270 
torque (ref. CG): -0.000273 (roll) 0.008272 (pitch) -0.001415 (yaw) 
----------------------------------------------------- 
step 96, time 0.072000, maxvel 3.000000, total vol 359.697, vol(u>maxvel) 0, cell count 0
bounding box (containing cells with vel>maxvel): xmin inf inf inf, xmax -inf -inf -infm 
bounding box of vehicle: xmin -2.47489 -0.161927 0.0631, xmax 0 0.161927 0.5139m 
gts area: 4.03325 
yplus max: 4.06159, yplus min: 0.0759393 
position of yplus max: -2.47422 0.16113 0.106396 
yplus prom: 0.983702 
forces: 0.125583 0.001145 -0.017553 
Drag coefficient: 0.933746 
torque (ref. CG): -0.000273 (roll) 0.008219 (pitch) -0.001417 (yaw) 
----------------------------------------------------- 
step 97, time 0.072750, maxvel 3.000000, total vol 359.697, vol(u>maxvel) 0, cell count 0
bounding box (containing cells with vel>maxvel): xmin inf inf inf, xmax -inf -inf -infm 
bounding box of vehicle: xmin -2.47489 -0.161927 0.0631, xmax 0 0.161927 0.5139m 
gts area: 4.03325 
yplus max: 4.06052, yplus min: 0.0626261 
position of yplus max: -2.47422 0.16113 0.106396 
yplus prom: 0.983388 
forces: 0.125642 0.001145 -0.017609 
Drag coefficient: 0.934181 
torque (ref. CG): -0.000273 (roll) 0.008164 (pitch) -0.001417 (yaw) 
----------------------------------------------------- 
step 98, time 0.073500, maxvel 3.000000, total vol 359.697, vol(u>maxvel) 0, cell count 0
bounding box (containing cells with vel>maxvel): xmin inf inf inf, xmax -inf -inf -infm 
bounding box of vehicle: xmin -2.47489 -0.161927 0.0631, xmax 0 0.161927 0.5139m 
gts area: 4.03325 
yplus max: 4.05946, yplus min: 0.0708282 
position of yplus max: -2.47422 0.16113 0.106396 
yplus prom: 0.983065 
forces: 0.125694 0.001142 -0.017659 
Drag coefficient: 0.934569 
torque (ref. CG): -0.000272 (roll) 0.008115 (pitch) -0.001414 (yaw) 
----------------------------------------------------- 
step 99, time 0.074250, maxvel 3.000000, total vol 359.697, vol(u>maxvel) 0, cell count 0
bounding box (containing cells with vel>maxvel): xmin inf inf inf, xmax -inf -inf -infm 
bounding box of vehicle: xmin -2.47489 -0.161927 0.0631, xmax 0 0.161927 0.5139m 
gts area: 4.03325 
yplus max: 4.05841, yplus min: 0.0886248 
position of yplus max: -2.47422 0.16113 0.106396 
yplus prom: 0.982734 
forces: 0.125746 0.001140 -0.017709 
Drag coefficient: 0.934952 
torque (ref. CG): -0.000272 (roll) 0.008065 (pitch) -0.001411 (yaw) 
----------------------------------------------------- 
step 100, time 0.075000, maxvel 3.000000, total vol 359.697, vol(u>maxvel) 0, cell count 0
bounding box (containing cells with vel>maxvel): xmin inf inf inf, xmax -inf -inf -infm 
bounding box of vehicle: xmin -2.47489 -0.161927 0.0631, xmax 0 0.161927 0.5139m 
gts area: 4.03325 
yplus max: 4.05737, yplus min: 0.105529 
position of yplus max: -2.47422 0.16113 0.106396 
yplus prom: 0.982394 
forces: 0.125795 0.001141 -0.017763 
Drag coefficient: 0.935319 
torque (ref. CG): -0.000272 (roll) 0.008010 (pitch) -0.001411 (yaw) 
----------------------------------------------------- 
step 101, time 0.075750, maxvel 3.000000, total vol 359.697, vol(u>maxvel) 0, cell count 0
bounding box (containing cells with vel>maxvel): xmin inf inf inf, xmax -inf -inf -infm 
bounding box of vehicle: xmin -2.47489 -0.161927 0.0631, xmax 0 0.161927 0.5139m 
gts area: 4.03325 
yplus max: 4.05633, yplus min: 0.109925 
position of yplus max: -2.47422 0.16113 0.106396 
yplus prom: 0.982045 
forces: 0.125844 0.001142 -0.017815 
Drag coefficient: 0.935682 
torque (ref. CG): -0.000272 (roll) 0.007957 (pitch) -0.001413 (yaw) 
----------------------------------------------------- 
step 102, time 0.076500, maxvel 3.000000, total vol 359.697, vol(u>maxvel) 0, cell count 0
bounding box (containing cells with vel>maxvel): xmin inf inf inf, xmax -inf -inf -infm 
bounding box of vehicle: xmin -2.47489 -0.161927 0.0631, xmax 0 0.161927 0.5139m 
gts area: 4.03325 
yplus max: 4.05531, yplus min: 0.081102 
position of yplus max: -2.47422 0.16113 0.106396 
yplus prom: 0.981688 
forces: 0.125884 0.001138 -0.017864 
Drag coefficient: 0.935981 
torque (ref. CG): -0.000271 (roll) 0.007905 (pitch) -0.001409 (yaw) 
----------------------------------------------------- 
step 103, time 0.077250, maxvel 3.000000, total vol 359.697, vol(u>maxvel) 0, cell count 0
bounding box (containing cells with vel>maxvel): xmin inf inf inf, xmax -inf -inf -infm 
bounding box of vehicle: xmin -2.47489 -0.161927 0.0631, xmax 0 0.161927 0.5139m 
gts area: 4.03325 
yplus max: 4.0543, yplus min: 0.119804 
position of yplus max: -2.47422 0.16113 0.106396 
yplus prom: 0.981324 
forces: 0.125926 0.001139 -0.017914 
Drag coefficient: 0.936293 
torque (ref. CG): -0.000271 (roll) 0.007853 (pitch) -0.001409 (yaw) 
----------------------------------------------------- 
step 104, time 0.078000, maxvel 3.000000, total vol 359.697, vol(u>maxvel) 0, cell count 0
bounding box (containing cells with vel>maxvel): xmin inf inf inf, xmax -inf -inf -infm 
bounding box of vehicle: xmin -2.47489 -0.161927 0.0631, xmax 0 0.161927 0.5139m 
gts area: 4.03325 
yplus max: 4.0533, yplus min: 0.10151 
position of yplus max: -2.47422 0.16113 0.106396 
yplus prom: 0.980953 
forces: 0.125964 0.001137 -0.017964 
Drag coefficient: 0.936579 
torque (ref. CG): -0.000271 (roll) 0.007801 (pitch) -0.001407 (yaw) 
----------------------------------------------------- 
step 105, time 0.078750, maxvel 3.000000, total vol 359.697, vol(u>maxvel) 0, cell count 0
bounding box (containing cells with vel>maxvel): xmin inf inf inf, xmax -inf -inf -infm 
bounding box of vehicle: xmin -2.47489 -0.161927 0.0631, xmax 0 0.161927 0.5139m 
gts area: 4.03325 
yplus max: 4.05231, yplus min: 0.113879 
position of yplus max: -2.47422 0.16113 0.106396 
yplus prom: 0.980575 
forces: 0.126000 0.001136 -0.018013 
Drag coefficient: 0.936845 
torque (ref. CG): -0.000271 (roll) 0.007749 (pitch) -0.001406 (yaw) 
----------------------------------------------------- 
step 106, time 0.079500, maxvel 3.000000, total vol 359.697, vol(u>maxvel) 0, cell count 0
bounding box (containing cells with vel>maxvel): xmin inf inf inf, xmax -inf -inf -infm 
bounding box of vehicle: xmin -2.47489 -0.161927 0.0631, xmax 0 0.161927 0.5139m 
gts area: 4.03325 
yplus max: 4.05133, yplus min: 0.146813 
position of yplus max: -2.47422 0.16113 0.106396 
yplus prom: 0.980191 
forces: 0.126034 0.001135 -0.018062 
Drag coefficient: 0.937094 
torque (ref. CG): -0.000271 (roll) 0.007696 (pitch) -0.001405 (yaw) 
----------------------------------------------------- 
step 107, time 0.080250, maxvel 3.000000, total vol 359.697, vol(u>maxvel) 0, cell count 0
bounding box (containing cells with vel>maxvel): xmin inf inf inf, xmax -inf -inf -infm 
bounding box of vehicle: xmin -2.47489 -0.161927 0.0631, xmax 0 0.161927 0.5139m 
gts area: 4.03325 
yplus max: 4.05037, yplus min: 0.150193 
position of yplus max: -2.47422 0.16113 0.106396 
yplus prom: 0.979802 
forces: 0.126065 0.001134 -0.018111 
Drag coefficient: 0.937325 
torque (ref. CG): -0.000270 (roll) 0.007644 (pitch) -0.001404 (yaw) 
----------------------------------------------------- 
step 108, time 0.081000, maxvel 3.000000, total vol 359.697, vol(u>maxvel) 0, cell count 0
bounding box (containing cells with vel>maxvel): xmin inf inf inf, xmax -inf -inf -infm 
bounding box of vehicle: xmin -2.47489 -0.161927 0.0631, xmax 0 0.161927 0.5139m 
gts area: 4.03325 
yplus max: 4.04942, yplus min: 0.12401 
position of yplus max: -2.47422 0.16113 0.106396 
yplus prom: 0.979407 
forces: 0.126093 0.001133 -0.018159 
Drag coefficient: 0.937538 
torque (ref. CG): -0.000270 (roll) 0.007591 (pitch) -0.001402 (yaw) 
----------------------------------------------------- 
step 109, time 0.081750, maxvel 3.000000, total vol 359.697, vol(u>maxvel) 0, cell count 0
bounding box (containing cells with vel>maxvel): xmin inf inf inf, xmax -inf -inf -infm 
bounding box of vehicle: xmin -2.47489 -0.161927 0.0631, xmax 0 0.161927 0.5139m 
gts area: 4.03325 
yplus max: 4.04848, yplus min: 0.0971371 
position of yplus max: -2.47422 0.16113 0.106396 
yplus prom: 0.979008 
forces: 0.126120 0.001132 -0.018207 
Drag coefficient: 0.937734 
torque (ref. CG): -0.000270 (roll) 0.007538 (pitch) -0.001401 (yaw) 
----------------------------------------------------- 
step 110, time 0.082500, maxvel 3.000000, total vol 359.697, vol(u>maxvel) 0, cell count 0
bounding box (containing cells with vel>maxvel): xmin inf inf inf, xmax -inf -inf -infm 
bounding box of vehicle: xmin -2.47489 -0.161927 0.0631, xmax 0 0.161927 0.5139m 
gts area: 4.03325 
yplus max: 4.04755, yplus min: 0.0535867 
position of yplus max: -2.47422 0.16113 0.106396 
yplus prom: 0.978604 
forces: 0.126144 0.001131 -0.018254 
Drag coefficient: 0.937913 
torque (ref. CG): -0.000270 (roll) 0.007485 (pitch) -0.001400 (yaw) 
----------------------------------------------------- 
step 111, time 0.083250, maxvel 3.000000, total vol 359.697, vol(u>maxvel) 0, cell count 0
bounding box (containing cells with vel>maxvel): xmin inf inf inf, xmax -inf -inf -infm 
bounding box of vehicle: xmin -2.47489 -0.161927 0.0631, xmax 0 0.161927 0.5139m 
gts area: 4.03325 
yplus max: 4.04664, yplus min: 0.0852418 
position of yplus max: -2.47422 0.16113 0.106396 
yplus prom: 0.978199 
forces: 0.126166 0.001130 -0.018301 
Drag coefficient: 0.938076 
torque (ref. CG): -0.000269 (roll) 0.007433 (pitch) -0.001399 (yaw) 
----------------------------------------------------- 
step 112, time 0.084000, maxvel 3.000000, total vol 359.697, vol(u>maxvel) 0, cell count 0
bounding box (containing cells with vel>maxvel): xmin inf inf inf, xmax -inf -inf -infm 
bounding box of vehicle: xmin -2.47489 -0.161927 0.0631, xmax 0 0.161927 0.5139m 
gts area: 4.03325 
yplus max: 4.04574, yplus min: 0.112436 
position of yplus max: -2.47422 0.16113 0.106396 
yplus prom: 0.977789 
forces: 0.126186 0.001129 -0.018347 
Drag coefficient: 0.938224 
torque (ref. CG): -0.000269 (roll) 0.007380 (pitch) -0.001397 (yaw) 
----------------------------------------------------- 
step 113, time 0.084750, maxvel 3.000000, total vol 359.697, vol(u>maxvel) 0, cell count 0
bounding box (containing cells with vel>maxvel): xmin inf inf inf, xmax -inf -inf -infm 
bounding box of vehicle: xmin -2.47489 -0.161927 0.0631, xmax 0 0.161927 0.5139m 
gts area: 4.03325 
yplus max: 4.04486, yplus min: 0.12587 
position of yplus max: -2.47422 0.16113 0.106396 
yplus prom: 0.977375 
forces: 0.126204 0.001128 -0.018393 
Drag coefficient: 0.938358 
torque (ref. CG): -0.000269 (roll) 0.007327 (pitch) -0.001396 (yaw) 
----------------------------------------------------- 
step 114, time 0.085500, maxvel 3.000000, total vol 359.697, vol(u>maxvel) 0, cell count 0
bounding box (containing cells with vel>maxvel): xmin inf inf inf, xmax -inf -inf -infm 
bounding box of vehicle: xmin -2.47489 -0.161927 0.0631, xmax 0 0.161927 0.5139m 
gts area: 4.03325 
yplus max: 4.04399, yplus min: 0.0978569 
position of yplus max: -2.47422 0.16113 0.106396 
yplus prom: 0.976954 
forces: 0.126220 0.001127 -0.018439 
Drag coefficient: 0.938478 
torque (ref. CG): -0.000269 (roll) 0.007274 (pitch) -0.001395 (yaw) 
----------------------------------------------------- 
step 115, time 0.086250, maxvel 3.000000, total vol 359.697, vol(u>maxvel) 0, cell count 0
bounding box (containing cells with vel>maxvel): xmin inf inf inf, xmax -inf -inf -infm 
bounding box of vehicle: xmin -2.47489 -0.161927 0.0631, xmax 0 0.161927 0.5139m 
gts area: 4.03325 
yplus max: 4.04313, yplus min: 0.0768769 
position of yplus max: -2.47422 0.16113 0.106396 
yplus prom: 0.976529 
forces: 0.126234 0.001127 -0.018485 
Drag coefficient: 0.938586 
torque (ref. CG): -0.000269 (roll) 0.007221 (pitch) -0.001394 (yaw) 
----------------------------------------------------- 
step 116, time 0.087000, maxvel 3.000000, total vol 359.697, vol(u>maxvel) 0, cell count 0
bounding box (containing cells with vel>maxvel): xmin inf inf inf, xmax -inf -inf -infm 
bounding box of vehicle: xmin -2.47489 -0.161927 0.0631, xmax 0 0.161927 0.5139m 
gts area: 4.03325 
yplus max: 4.04229, yplus min: 0.125456 
position of yplus max: -2.47422 0.16113 0.106396 
yplus prom: 0.976101 
forces: 0.126247 0.001126 -0.018530 
Drag coefficient: 0.938682 
torque (ref. CG): -0.000268 (roll) 0.007168 (pitch) -0.001393 (yaw) 
----------------------------------------------------- 
step 117, time 0.087750, maxvel 3.000000, total vol 359.697, vol(u>maxvel) 0, cell count 0
bounding box (containing cells with vel>maxvel): xmin inf inf inf, xmax -inf -inf -infm 
bounding box of vehicle: xmin -2.47489 -0.161927 0.0631, xmax 0 0.161927 0.5139m 
gts area: 4.03325 
yplus max: 4.04146, yplus min: 0.0961738 
position of yplus max: -2.47422 0.16113 0.106396 
yplus prom: 0.975668 
forces: 0.126258 0.001125 -0.018576 
Drag coefficient: 0.938765 
torque (ref. CG): -0.000268 (roll) 0.007114 (pitch) -0.001392 (yaw) 
----------------------------------------------------- 
step 118, time 0.088500, maxvel 3.000000, total vol 359.697, vol(u>maxvel) 0, cell count 0
bounding box (containing cells with vel>maxvel): xmin inf inf inf, xmax -inf -inf -infm 
bounding box of vehicle: xmin -2.47489 -0.161927 0.0631, xmax 0 0.161927 0.5139m 
gts area: 4.03325 
yplus max: 4.04065, yplus min: 0.0738091 
position of yplus max: -2.47422 0.16113 0.106396 
yplus prom: 0.97523 
forces: 0.126268 0.001124 -0.018620 
Drag coefficient: 0.938834 
torque (ref. CG): -0.000268 (roll) 0.007061 (pitch) -0.001391 (yaw) 
----------------------------------------------------- 
step 119, time 0.089250, maxvel 3.000000, total vol 359.697, vol(u>maxvel) 0, cell count 0
bounding box (containing cells with vel>maxvel): xmin inf inf inf, xmax -inf -inf -infm 
bounding box of vehicle: xmin -2.47489 -0.161927 0.0631, xmax 0 0.161927 0.5139m 
gts area: 4.03325 
yplus max: 4.03986, yplus min: 0.107191 
position of yplus max: -2.47422 0.16113 0.106396 
yplus prom: 0.974789 
forces: 0.126275 0.001123 -0.018665 
Drag coefficient: 0.938891 
torque (ref. CG): -0.000268 (roll) 0.007008 (pitch) -0.001390 (yaw) 
----------------------------------------------------- 
step 120, time 0.090000, maxvel 3.000000, total vol 359.697, vol(u>maxvel) 0, cell count 0
bounding box (containing cells with vel>maxvel): xmin inf inf inf, xmax -inf -inf -infm 
bounding box of vehicle: xmin -2.47489 -0.161927 0.0631, xmax 0 0.161927 0.5139m 
gts area: 4.03325 
yplus max: 4.03908, yplus min: 0.102762 
position of yplus max: -2.47422 0.16113 0.106396 
yplus prom: 0.974343 
forces: 0.126281 0.001122 -0.018709 
Drag coefficient: 0.938935 
torque (ref. CG): -0.000267 (roll) 0.006955 (pitch) -0.001388 (yaw) 
----------------------------------------------------- 
step 121, time 0.090750, maxvel 3.000000, total vol 359.697, vol(u>maxvel) 0, cell count 0
bounding box (containing cells with vel>maxvel): xmin inf inf inf, xmax -inf -inf -infm 
bounding box of vehicle: xmin -2.47489 -0.161927 0.0631, xmax 0 0.161927 0.5139m 
gts area: 4.03325 
yplus max: 4.03831, yplus min: 0.10071 
position of yplus max: -2.47422 0.16113 0.106396 
yplus prom: 0.973893 
forces: 0.126286 0.001121 -0.018753 
Drag coefficient: 0.938966 
torque (ref. CG): -0.000267 (roll) 0.006901 (pitch) -0.001387 (yaw) 
----------------------------------------------------- 
step 122, time 0.091500, maxvel 3.000000, total vol 359.697, vol(u>maxvel) 0, cell count 0
bounding box (containing cells with vel>maxvel): xmin inf inf inf, xmax -inf -inf -infm 
bounding box of vehicle: xmin -2.47489 -0.161927 0.0631, xmax 0 0.161927 0.5139m 
gts area: 4.03325 
yplus max: 4.03757, yplus min: 0.10139 
position of yplus max: -2.47422 0.16113 0.106396 
yplus prom: 0.973441 
forces: 0.126288 0.001120 -0.018797 
Drag coefficient: 0.938985 
torque (ref. CG): -0.000267 (roll) 0.006848 (pitch) -0.001386 (yaw) 
----------------------------------------------------- 
step 123, time 0.092250, maxvel 3.000000, total vol 359.697, vol(u>maxvel) 0, cell count 0
bounding box (containing cells with vel>maxvel): xmin inf inf inf, xmax -inf -inf -infm 
bounding box of vehicle: xmin -2.47489 -0.161927 0.0631, xmax 0 0.161927 0.5139m 
gts area: 4.03325 
yplus max: 4.03683, yplus min: 0.104563 
position of yplus max: -2.47422 0.16113 0.106396 
yplus prom: 0.972985 
forces: 0.126289 0.001120 -0.018841 
Drag coefficient: 0.938991 
torque (ref. CG): -0.000267 (roll) 0.006794 (pitch) -0.001386 (yaw) 
----------------------------------------------------- 
step 124, time 0.093000, maxvel 3.000000, total vol 359.697, vol(u>maxvel) 0, cell count 0
bounding box (containing cells with vel>maxvel): xmin inf inf inf, xmax -inf -inf -infm 
bounding box of vehicle: xmin -2.47489 -0.161927 0.0631, xmax 0 0.161927 0.5139m 
gts area: 4.03325 
yplus max: 4.03612, yplus min: 0.109558 
position of yplus max: -2.47422 0.16113 0.106396 
yplus prom: 0.972528 
forces: 0.126288 0.001118 -0.018884 
Drag coefficient: 0.938985 
torque (ref. CG): -0.000267 (roll) 0.006740 (pitch) -0.001384 (yaw) 
----------------------------------------------------- 
step 125, time 0.093750, maxvel 3.000000, total vol 359.697, vol(u>maxvel) 0, cell count 0
bounding box (containing cells with vel>maxvel): xmin inf inf inf, xmax -inf -inf -infm 
bounding box of vehicle: xmin -2.47489 -0.161927 0.0631, xmax 0 0.161927 0.5139m 
gts area: 4.03325 
yplus max: 4.03542, yplus min: 0.115652 
position of yplus max: -2.47422 0.16113 0.106396 
yplus prom: 0.972069 
forces: 0.126286 0.001117 -0.018927 
Drag coefficient: 0.938968 
torque (ref. CG): -0.000266 (roll) 0.006686 (pitch) -0.001382 (yaw) 
----------------------------------------------------- 
step 126, time 0.094500, maxvel 3.000000, total vol 359.697, vol(u>maxvel) 0, cell count 0
bounding box (containing cells with vel>maxvel): xmin inf inf inf, xmax -inf -inf -infm 
bounding box of vehicle: xmin -2.47489 -0.161927 0.0631, xmax 0 0.161927 0.5139m 
gts area: 4.03325 
yplus max: 4.03473, yplus min: 0.122295 
position of yplus max: -2.47422 0.16113 0.106396 
yplus prom: 0.971609 
forces: 0.126282 0.001116 -0.018969 
Drag coefficient: 0.938941 
torque (ref. CG): -0.000266 (roll) 0.006633 (pitch) -0.001381 (yaw) 
----------------------------------------------------- 
step 127, time 0.095250, maxvel 3.000000, total vol 359.697, vol(u>maxvel) 0, cell count 0
bounding box (containing cells with vel>maxvel): xmin inf inf inf, xmax -inf -inf -infm 
bounding box of vehicle: xmin -2.47489 -0.161927 0.0631, xmax 0 0.161927 0.5139m 
gts area: 4.03325 
yplus max: 4.03407, yplus min: 0.0992034 
position of yplus max: -2.47422 0.16113 0.106396 
yplus prom: 0.971147 
forces: 0.126277 0.001115 -0.019012 
Drag coefficient: 0.938903 
torque (ref. CG): -0.000266 (roll) 0.006579 (pitch) -0.001380 (yaw) 
----------------------------------------------------- 
step 128, time 0.096000, maxvel 3.000000, total vol 359.697, vol(u>maxvel) 0, cell count 0
bounding box (containing cells with vel>maxvel): xmin inf inf inf, xmax -inf -inf -infm 
bounding box of vehicle: xmin -2.47489 -0.161927 0.0631, xmax 0 0.161927 0.5139m 
gts area: 4.03325 
yplus max: 4.03342, yplus min: 0.0824958 
position of yplus max: -2.47422 0.16113 0.106396 
yplus prom: 0.970685 
forces: 0.126270 0.001114 -0.019054 
Drag coefficient: 0.938854 
torque (ref. CG): -0.000266 (roll) 0.006526 (pitch) -0.001379 (yaw) 
----------------------------------------------------- 
step 129, time 0.096750, maxvel 3.000000, total vol 359.697, vol(u>maxvel) 0, cell count 0
bounding box (containing cells with vel>maxvel): xmin inf inf inf, xmax -inf -inf -infm 
bounding box of vehicle: xmin -2.47489 -0.161927 0.0631, xmax 0 0.161927 0.5139m 
gts area: 4.03325 
yplus max: 4.03279, yplus min: 0.106236 
position of yplus max: -2.47422 0.16113 0.106396 
yplus prom: 0.970227 
forces: 0.126262 0.001114 -0.019096 
Drag coefficient: 0.938795 
torque (ref. CG): -0.000265 (roll) 0.006472 (pitch) -0.001378 (yaw) 
----------------------------------------------------- 
step 130, time 0.097500, maxvel 3.000000, total vol 359.697, vol(u>maxvel) 0, cell count 0
bounding box (containing cells with vel>maxvel): xmin inf inf inf, xmax -inf -inf -infm 
bounding box of vehicle: xmin -2.47489 -0.161927 0.0631, xmax 0 0.161927 0.5139m 
gts area: 4.03325 
yplus max: 4.03217, yplus min: 0.134863 
position of yplus max: -2.47422 0.16113 0.106396 
yplus prom: 0.969769 
forces: 0.126253 0.001113 -0.019137 
Drag coefficient: 0.938726 
torque (ref. CG): -0.000265 (roll) 0.006418 (pitch) -0.001377 (yaw) 
----------------------------------------------------- 
step 131, time 0.098250, maxvel 3.000000, total vol 359.697, vol(u>maxvel) 0, cell count 0
bounding box (containing cells with vel>maxvel): xmin inf inf inf, xmax -inf -inf -infm 
bounding box of vehicle: xmin -2.47489 -0.161927 0.0631, xmax 0 0.161927 0.5139m 
gts area: 4.03325 
yplus max: 4.03157, yplus min: 0.106236 
position of yplus max: -2.47422 0.16113 0.106396 
yplus prom: 0.96931 
forces: 0.126243 0.001112 -0.019179 
Drag coefficient: 0.938648 
torque (ref. CG): -0.000265 (roll) 0.006364 (pitch) -0.001376 (yaw) 
----------------------------------------------------- 
step 132, time 0.099000, maxvel 3.000000, total vol 359.697, vol(u>maxvel) 0, cell count 0
bounding box (containing cells with vel>maxvel): xmin inf inf inf, xmax -inf -inf -infm 
bounding box of vehicle: xmin -2.47489 -0.161927 0.0631, xmax 0 0.161927 0.5139m 
gts area: 4.03325 
yplus max: 4.03099, yplus min: 0.0988262 
position of yplus max: -2.47422 0.16113 0.106396 
yplus prom: 0.968852 
forces: 0.126231 0.001111 -0.019220 
Drag coefficient: 0.938560 
torque (ref. CG): -0.000265 (roll) 0.006311 (pitch) -0.001375 (yaw) 
----------------------------------------------------- 
step 133, time 0.099750, maxvel 3.000000, total vol 359.697, vol(u>maxvel) 0, cell count 0
bounding box (containing cells with vel>maxvel): xmin inf inf inf, xmax -inf -inf -infm 
bounding box of vehicle: xmin -2.47489 -0.161927 0.0631, xmax 0 0.161927 0.5139m 
gts area: 4.03325 
yplus max: 4.03043, yplus min: 0.124358 
position of yplus max: -2.47422 0.16113 0.106396 
yplus prom: 0.968393 
forces: 0.126218 0.001110 -0.019261 
Drag coefficient: 0.938464 
torque (ref. CG): -0.000265 (roll) 0.006257 (pitch) -0.001374 (yaw) 
----------------------------------------------------- 
step 134, time 0.100500, maxvel 3.000000, total vol 359.697, vol(u>maxvel) 0, cell count 0
bounding box (containing cells with vel>maxvel): xmin inf inf inf, xmax -inf -inf -infm 
bounding box of vehicle: xmin -2.47489 -0.161927 0.0631, xmax 0 0.161927 0.5139m 
gts area: 4.03325 
yplus max: 4.02988, yplus min: 0.110443 
position of yplus max: -2.47422 0.16113 0.106396 
yplus prom: 0.967933 
forces: 0.126204 0.001109 -0.019301 
Drag coefficient: 0.938359 
torque (ref. CG): -0.000264 (roll) 0.006203 (pitch) -0.001373 (yaw) 
----------------------------------------------------- 
step 135, time 0.101250, maxvel 3.000000, total vol 359.697, vol(u>maxvel) 0, cell count 0
bounding box (containing cells with vel>maxvel): xmin inf inf inf, xmax -inf -inf -infm 
bounding box of vehicle: xmin -2.47489 -0.161927 0.0631, xmax 0 0.161927 0.5139m 
gts area: 4.03325 
yplus max: 4.02935, yplus min: 0.0677854 
position of yplus max: -2.47422 0.16113 0.106396 
yplus prom: 0.967473 
forces: 0.126189 0.001109 -0.019342 
Drag coefficient: 0.938246 
torque (ref. CG): -0.000264 (roll) 0.006150 (pitch) -0.001372 (yaw) 
[...]
gts area: 4.03325 
yplus max: 3.78998, yplus min: 0.07551 
position of yplus max: -2.47422 0.16113 0.106396 
yplus prom: 0.81053 
forces: 0.094327 0.000844 -0.027471 
Drag coefficient: 0.701347 
torque (ref. CG): -0.000201 (roll) -0.011505 (pitch) -0.001044 (yaw) 
----------------------------------------------------- 
step 1187, time 0.890250, maxvel 3.000000, total vol 359.697, vol(u>maxvel) 0, cell count 0
bounding box (containing cells with vel>maxvel): xmin inf inf inf, xmax -inf -inf -infm 
bounding box of vehicle: xmin -2.47489 -0.161927 0.0631, xmax 0 0.161927 0.5139m 
gts area: 4.03325 
yplus max: 3.78982, yplus min: 0.0769054 
position of yplus max: -2.47422 0.16113 0.106396 
yplus prom: 0.810506 
forces: 0.094319 0.000844 -0.027469 
Drag coefficient: 0.701286 
torque (ref. CG): -0.000201 (roll) -0.011505 (pitch) -0.001044 (yaw) 
----------------------------------------------------- 
step 1188, time 0.891000, maxvel 3.000000, total vol 359.697, vol(u>maxvel) 0, cell count 0
bounding box (containing cells with vel>maxvel): xmin inf inf inf, xmax -inf -inf -infm 
bounding box of vehicle: xmin -2.47489 -0.161927 0.0631, xmax 0 0.161927 0.5139m 
gts area: 4.03325 
yplus max: 3.78966, yplus min: 0.0785674 
position of yplus max: -2.47422 0.16113 0.106396 
yplus prom: 0.810482 
forces: 0.094308 0.000843 -0.027467 
Drag coefficient: 0.701208 
torque (ref. CG): -0.000201 (roll) -0.011505 (pitch) -0.001044 (yaw) 
----------------------------------------------------- 
step 1189, time 0.891750, maxvel 3.000000, total vol 359.697, vol(u>maxvel) 0, cell count 0
bounding box (containing cells with vel>maxvel): xmin inf inf inf, xmax -inf -inf -infm 
bounding box of vehicle: xmin -2.47489 -0.161927 0.0631, xmax 0 0.161927 0.5139m 
gts area: 4.03325 
yplus max: 3.7895, yplus min: 0.0804691 
position of yplus max: -2.47422 0.16113 0.106396 
yplus prom: 0.810458 
forces: 0.094297 0.000843 -0.027464 
Drag coefficient: 0.701121 
torque (ref. CG): -0.000201 (roll) -0.011503 (pitch) -0.001043 (yaw) 
----------------------------------------------------- 
step 1190, time 0.892500, maxvel 3.000000, total vol 359.697, vol(u>maxvel) 0, cell count 0
bounding box (containing cells with vel>maxvel): xmin inf inf inf, xmax -inf -inf -infm 
bounding box of vehicle: xmin -2.47489 -0.161927 0.0631, xmax 0 0.161927 0.5139m 
gts area: 4.03325 
yplus max: 3.78935, yplus min: 0.0826352 
position of yplus max: -2.47422 0.16113 0.106396 
yplus prom: 0.810433 
forces: 0.094289 0.000843 -0.027462 
Drag coefficient: 0.701063 
torque (ref. CG): -0.000201 (roll) -0.011503 (pitch) -0.001043 (yaw) 
----------------------------------------------------- 
step 1191, time 0.893250, maxvel 3.000000, total vol 359.697, vol(u>maxvel) 0, cell count 0
bounding box (containing cells with vel>maxvel): xmin inf inf inf, xmax -inf -inf -infm 
bounding box of vehicle: xmin -2.47489 -0.161927 0.0631, xmax 0 0.161927 0.5139m 
gts area: 4.03325 
yplus max: 3.78919, yplus min: 0.0849119 
position of yplus max: -2.47422 0.16113 0.106396 
yplus prom: 0.810409 
forces: 0.094279 0.000842 -0.027460 
Drag coefficient: 0.700987 
torque (ref. CG): -0.000201 (roll) -0.011503 (pitch) -0.001042 (yaw) 
----------------------------------------------------- 
step 1192, time 0.894000, maxvel 3.000000, total vol 359.697, vol(u>maxvel) 0, cell count 0
bounding box (containing cells with vel>maxvel): xmin inf inf inf, xmax -inf -inf -infm 
bounding box of vehicle: xmin -2.47489 -0.161927 0.0631, xmax 0 0.161927 0.5139m 
gts area: 4.03325 
yplus max: 3.78903, yplus min: 0.087285 
position of yplus max: -2.47422 0.16113 0.106396 
yplus prom: 0.810385 
forces: 0.094267 0.000841 -0.027457 
Drag coefficient: 0.700900 
torque (ref. CG): -0.000201 (roll) -0.011502 (pitch) -0.001041 (yaw) 
----------------------------------------------------- 
step 1193, time 0.894750, maxvel 3.000000, total vol 359.697, vol(u>maxvel) 0, cell count 0
bounding box (containing cells with vel>maxvel): xmin inf inf inf, xmax -inf -inf -infm 
bounding box of vehicle: xmin -2.47489 -0.161927 0.0631, xmax 0 0.161927 0.5139m 
gts area: 4.03325 
yplus max: 3.78888, yplus min: 0.0897838 
position of yplus max: -2.47422 0.16113 0.106396 
yplus prom: 0.810362 
forces: 0.094259 0.000841 -0.027455 
Drag coefficient: 0.700843 
torque (ref. CG): -0.000201 (roll) -0.011501 (pitch) -0.001041 (yaw) 
----------------------------------------------------- 
step 1194, time 0.895500, maxvel 3.000000, total vol 359.697, vol(u>maxvel) 0, cell count 0
bounding box (containing cells with vel>maxvel): xmin inf inf inf, xmax -inf -inf -infm 
bounding box of vehicle: xmin -2.47489 -0.161927 0.0631, xmax 0 0.161927 0.5139m 
gts area: 4.03325 
yplus max: 3.78872, yplus min: 0.0895793 
position of yplus max: -2.47422 0.16113 0.106396 
yplus prom: 0.810338 
forces: 0.094248 0.000841 -0.027452 
Drag coefficient: 0.700758 
torque (ref. CG): -0.000200 (roll) -0.011501 (pitch) -0.001040 (yaw) 
----------------------------------------------------- 
step 1195, time 0.896250, maxvel 3.000000, total vol 359.697, vol(u>maxvel) 0, cell count 0
bounding box (containing cells with vel>maxvel): xmin inf inf inf, xmax -inf -inf -infm 
bounding box of vehicle: xmin -2.47489 -0.161927 0.0631, xmax 0 0.161927 0.5139m 
gts area: 4.03325 
yplus max: 3.78857, yplus min: 0.0891395 
position of yplus max: -2.47422 0.16113 0.106396 
yplus prom: 0.810314 
forces: 0.094240 0.000841 -0.027450 
Drag coefficient: 0.700697 
torque (ref. CG): -0.000200 (roll) -0.011500 (pitch) -0.001040 (yaw) 
----------------------------------------------------- 
step 1196, time 0.897000, maxvel 3.000000, total vol 359.697, vol(u>maxvel) 0, cell count 0
bounding box (containing cells with vel>maxvel): xmin inf inf inf, xmax -inf -inf -infm 
bounding box of vehicle: xmin -2.47489 -0.161927 0.0631, xmax 0 0.161927 0.5139m 
gts area: 4.03325 
yplus max: 3.78841, yplus min: 0.0887044 
position of yplus max: -2.47422 0.16113 0.106396 
yplus prom: 0.810291 
forces: 0.094229 0.000840 -0.027448 
Drag coefficient: 0.700620 
torque (ref. CG): -0.000200 (roll) -0.011500 (pitch) -0.001040 (yaw) 
----------------------------------------------------- 
step 1197, time 0.897750, maxvel 3.000000, total vol 359.697, vol(u>maxvel) 0, cell count 0
bounding box (containing cells with vel>maxvel): xmin inf inf inf, xmax -inf -inf -infm 
bounding box of vehicle: xmin -2.47489 -0.161927 0.0631, xmax 0 0.161927 0.5139m 
gts area: 4.03325 
yplus max: 3.78826, yplus min: 0.0882783 
position of yplus max: -2.47422 0.16113 0.106396 
yplus prom: 0.810267 
forces: 0.094218 0.000840 -0.027445 
Drag coefficient: 0.700534 
torque (ref. CG): -0.000200 (roll) -0.011499 (pitch) -0.001039 (yaw) 
----------------------------------------------------- 
step 1198, time 0.898500, maxvel 3.000000, total vol 359.697, vol(u>maxvel) 0, cell count 0
bounding box (containing cells with vel>maxvel): xmin inf inf inf, xmax -inf -inf -infm 
bounding box of vehicle: xmin -2.47489 -0.161927 0.0631, xmax 0 0.161927 0.5139m 
gts area: 4.03325 
yplus max: 3.7881, yplus min: 0.0878717 
position of yplus max: -2.47422 0.16113 0.106396 
yplus prom: 0.810244 
forces: 0.094210 0.000839 -0.027443 
Drag coefficient: 0.700478 
torque (ref. CG): -0.000200 (roll) -0.011498 (pitch) -0.001039 (yaw) 
----------------------------------------------------- 
step 1199, time 0.899250, maxvel 3.000000, total vol 359.697, vol(u>maxvel) 0, cell count 0
bounding box (containing cells with vel>maxvel): xmin inf inf inf, xmax -inf -inf -infm 
bounding box of vehicle: xmin -2.47489 -0.161927 0.0631, xmax 0 0.161927 0.5139m 
gts area: 4.03325 
yplus max: 3.78795, yplus min: 0.0874709 
position of yplus max: -2.47422 0.16113 0.106396 
yplus prom: 0.81022 
forces: 0.094200 0.000839 -0.027441 
Drag coefficient: 0.700403 
torque (ref. CG): -0.000200 (roll) -0.011499 (pitch) -0.001038 (yaw) 
----------------------------------------------------- 
step 1200, time 0.900000, maxvel 3.000000, total vol 359.697, vol(u>maxvel) 0, cell count 0
bounding box (containing cells with vel>maxvel): xmin inf inf inf, xmax -inf -inf -infm 
bounding box of vehicle: xmin -2.47489 -0.161927 0.0631, xmax 0 0.161927 0.5139m 
gts area: 4.03325 
yplus max: 3.78779, yplus min: 0.0870798 
position of yplus max: -2.47422 0.16113 0.106396 
yplus prom: 0.810197 
forces: 0.094189 0.000838 -0.027438 
Drag coefficient: 0.700317 
torque (ref. CG): -0.000200 (roll) -0.011497 (pitch) -0.001037 (yaw) 
----------------------------------------------------- 
step 1201, time 0.900750, maxvel 3.000000, total vol 359.697, vol(u>maxvel) 0, cell count 0
bounding box (containing cells with vel>maxvel): xmin inf inf inf, xmax -inf -inf -infm 
bounding box of vehicle: xmin -2.47489 -0.161927 0.0631, xmax 0 0.161927 0.5139m 
gts area: 4.03325 
yplus max: 3.78764, yplus min: 0.0867088 
position of yplus max: -2.47422 0.16113 0.106396 
yplus prom: 0.810174 
forces: 0.094181 0.000838 -0.027436 
Drag coefficient: 0.700261 
torque (ref. CG): -0.000200 (roll) -0.011497 (pitch) -0.001037 (yaw) 
----------------------------------------------------- 
step 1202, time 0.901500, maxvel 3.000000, total vol 359.697, vol(u>maxvel) 0, cell count 0
bounding box (containing cells with vel>maxvel): xmin inf inf inf, xmax -inf -inf -infm 
bounding box of vehicle: xmin -2.47489 -0.161927 0.0631, xmax 0 0.161927 0.5139m 
gts area: 4.03325 
yplus max: 3.78749, yplus min: 0.0863409 
position of yplus max: -2.47422 0.16113 0.106396 
yplus prom: 0.810151 
forces: 0.094170 0.000838 -0.027434 
Drag coefficient: 0.700176 
torque (ref. CG): -0.000200 (roll) -0.011496 (pitch) -0.001037 (yaw) 
----------------------------------------------------- 
step 1203, time 0.902250, maxvel 3.000000, total vol 359.697, vol(u>maxvel) 0, cell count 0
bounding box (containing cells with vel>maxvel): xmin inf inf inf, xmax -inf -inf -infm 
bounding box of vehicle: xmin -2.47489 -0.161927 0.0631, xmax 0 0.161927 0.5139m 
gts area: 4.03325 
yplus max: 3.78734, yplus min: 0.0859949 
position of yplus max: -2.47422 0.16113 0.106396 
yplus prom: 0.810127 
forces: 0.094162 0.000838 -0.027431 
Drag coefficient: 0.700117 
torque (ref. CG): -0.000200 (roll) -0.011495 (pitch) -0.001036 (yaw) 
----------------------------------------------------- 
step 1204, time 0.903000, maxvel 3.000000, total vol 359.697, vol(u>maxvel) 0, cell count 0
bounding box (containing cells with vel>maxvel): xmin inf inf inf, xmax -inf -inf -infm 
bounding box of vehicle: xmin -2.47489 -0.161927 0.0631, xmax 0 0.161927 0.5139m 
gts area: 4.03325 
yplus max: 3.78718, yplus min: 0.0856556 
position of yplus max: -2.47422 0.16113 0.106396 
yplus prom: 0.810104 
forces: 0.094151 0.000837 -0.027429 
Drag coefficient: 0.700041 
torque (ref. CG): -0.000200 (roll) -0.011496 (pitch) -0.001036 (yaw) 
----------------------------------------------------- 
step 1205, time 0.903750, maxvel 3.000000, total vol 359.697, vol(u>maxvel) 0, cell count 0
bounding box (containing cells with vel>maxvel): xmin inf inf inf, xmax -inf -inf -infm 
bounding box of vehicle: xmin -2.47489 -0.161927 0.0631, xmax 0 0.161927 0.5139m 
gts area: 4.03325 
yplus max: 3.78703, yplus min: 0.0853269 
position of yplus max: -2.47422 0.16113 0.106396 
yplus prom: 0.810081 
forces: 0.094140 0.000837 -0.027426 
Drag coefficient: 0.699956 
torque (ref. CG): -0.000199 (roll) -0.011494 (pitch) -0.001035 (yaw) 
----------------------------------------------------- 
step 1206, time 0.904500, maxvel 3.000000, total vol 359.697, vol(u>maxvel) 0, cell count 0
bounding box (containing cells with vel>maxvel): xmin inf inf inf, xmax -inf -inf -infm 
bounding box of vehicle: xmin -2.47489 -0.161927 0.0631, xmax 0 0.161927 0.5139m 
gts area: 4.03325 
yplus max: 3.78688, yplus min: 0.0850195 
position of yplus max: -2.47422 0.16113 0.106396 
yplus prom: 0.810059 
forces: 0.094133 0.000836 -0.027424 
Drag coefficient: 0.699901 
torque (ref. CG): -0.000199 (roll) -0.011493 (pitch) -0.001035 (yaw) 
----------------------------------------------------- 
step 1207, time 0.905250, maxvel 3.000000, total vol 359.697, vol(u>maxvel) 0, cell count 0
bounding box (containing cells with vel>maxvel): xmin inf inf inf, xmax -inf -inf -infm 
bounding box of vehicle: xmin -2.47489 -0.161927 0.0631, xmax 0 0.161927 0.5139m 
gts area: 4.03325 
yplus max: 3.78673, yplus min: 0.0847195 
position of yplus max: -2.47422 0.16113 0.106396 
yplus prom: 0.810036 
forces: 0.094123 0.000836 -0.027422 
Drag coefficient: 0.699827 
torque (ref. CG): -0.000199 (roll) -0.011494 (pitch) -0.001035 (yaw) 
----------------------------------------------------- 
step 1208, time 0.906000, maxvel 3.000000, total vol 359.697, vol(u>maxvel) 0, cell count 0
bounding box (containing cells with vel>maxvel): xmin inf inf inf, xmax -inf -inf -infm 
bounding box of vehicle: xmin -2.47489 -0.161927 0.0631, xmax 0 0.161927 0.5139m 
gts area: 4.03325 
yplus max: 3.78657, yplus min: 0.0844305 
position of yplus max: -2.47422 0.16113 0.106396 
yplus prom: 0.810013 
forces: 0.094111 0.000835 -0.027419 
Drag coefficient: 0.699742 
torque (ref. CG): -0.000199 (roll) -0.011492 (pitch) -0.001034 (yaw) 
----------------------------------------------------- 
step 1209, time 0.906750, maxvel 3.000000, total vol 359.697, vol(u>maxvel) 0, cell count 0
bounding box (containing cells with vel>maxvel): xmin inf inf inf, xmax -inf -inf -infm 
bounding box of vehicle: xmin -2.47489 -0.161927 0.0631, xmax 0 0.161927 0.5139m 
gts area: 4.03325 
yplus max: 3.78642, yplus min: 0.084163 
position of yplus max: -2.47422 0.16113 0.106396 
yplus prom: 0.80999 
forces: 0.094104 0.000835 -0.027417 
Drag coefficient: 0.699686 
torque (ref. CG): -0.000199 (roll) -0.011491 (pitch) -0.001034 (yaw) 
----------------------------------------------------- 
step 1210, time 0.907500, maxvel 3.000000, total vol 359.697, vol(u>maxvel) 0, cell count 0
bounding box (containing cells with vel>maxvel): xmin inf inf inf, xmax -inf -inf -infm 
bounding box of vehicle: xmin -2.47489 -0.161927 0.0631, xmax 0 0.161927 0.5139m 
gts area: 4.03325 
yplus max: 3.78627, yplus min: 0.0838999 
position of yplus max: -2.47422 0.16113 0.106396 
yplus prom: 0.809968 
forces: 0.094093 0.000835 -0.027414 
Drag coefficient: 0.699603 
torque (ref. CG): -0.000199 (roll) -0.011491 (pitch) -0.001033 (yaw) 
----------------------------------------------------- 
step 1211, time 0.908250, maxvel 3.000000, total vol 359.697, vol(u>maxvel) 0, cell count 0
bounding box (containing cells with vel>maxvel): xmin inf inf inf, xmax -inf -inf -infm 
bounding box of vehicle: xmin -2.47489 -0.161927 0.0631, xmax 0 0.161927 0.5139m 
gts area: 4.03325 
yplus max: 3.78612, yplus min: 0.0836598 
position of yplus max: -2.47422 0.16113 0.106396 
yplus prom: 0.809945 
forces: 0.094085 0.000835 -0.027412 
Drag coefficient: 0.699545 
torque (ref. CG): -0.000199 (roll) -0.011490 (pitch) -0.001033 (yaw) 
----------------------------------------------------- 
step 1212, time 0.909000, maxvel 3.000000, total vol 359.697, vol(u>maxvel) 0, cell count 0
bounding box (containing cells with vel>maxvel): xmin inf inf inf, xmax -inf -inf -infm 
bounding box of vehicle: xmin -2.47489 -0.161927 0.0631, xmax 0 0.161927 0.5139m 
gts area: 4.03325 
yplus max: 3.78597, yplus min: 0.0834273 
position of yplus max: -2.47422 0.16113 0.106396 
yplus prom: 0.809923 
forces: 0.094075 0.000834 -0.027410 
Drag coefficient: 0.699470 
torque (ref. CG): -0.000199 (roll) -0.011490 (pitch) -0.001032 (yaw) 
----------------------------------------------------- 
step 1213, time 0.909750, maxvel 3.000000, total vol 359.697, vol(u>maxvel) 0, cell count 0
bounding box (containing cells with vel>maxvel): xmin inf inf inf, xmax -inf -inf -infm 
bounding box of vehicle: xmin -2.47489 -0.161927 0.0631, xmax 0 0.161927 0.5139m 
gts area: 4.03325 
yplus max: 3.78582, yplus min: 0.0832064 
position of yplus max: -2.47422 0.16113 0.106396 
yplus prom: 0.8099 
forces: 0.094063 0.000833 -0.027407 
Drag coefficient: 0.699386 
torque (ref. CG): -0.000199 (roll) -0.011488 (pitch) -0.001031 (yaw) 
----------------------------------------------------- 
step 1214, time 0.910500, maxvel 3.000000, total vol 359.697, vol(u>maxvel) 0, cell count 0
bounding box (containing cells with vel>maxvel): xmin inf inf inf, xmax -inf -inf -infm 
bounding box of vehicle: xmin -2.47489 -0.161927 0.0631, xmax 0 0.161927 0.5139m 
gts area: 4.03325 
yplus max: 3.78567, yplus min: 0.0830071 
position of yplus max: -2.47422 0.16113 0.106396 
yplus prom: 0.809878 
forces: 0.094056 0.000833 -0.027405 
Drag coefficient: 0.699331 
torque (ref. CG): -0.000199 (roll) -0.011488 (pitch) -0.001031 (yaw) 
----------------------------------------------------- 
step 1215, time 0.911250, maxvel 3.000000, total vol 359.697, vol(u>maxvel) 0, cell count 0
bounding box (containing cells with vel>maxvel): xmin inf inf inf, xmax -inf -inf -infm 
bounding box of vehicle: xmin -2.47489 -0.161927 0.0631, xmax 0 0.161927 0.5139m 
gts area: 4.03325 
yplus max: 3.78552, yplus min: 0.0828159 
position of yplus max: -2.47422 0.16113 0.106396 
yplus prom: 0.809856 
forces: 0.094046 0.000833 -0.027403 
Drag coefficient: 0.699258 
torque (ref. CG): -0.000199 (roll) -0.011488 (pitch) -0.001031 (yaw) 
----------------------------------------------------- 
step 1216, time 0.912000, maxvel 3.000000, total vol 359.697, vol(u>maxvel) 0, cell count 0
bounding box (containing cells with vel>maxvel): xmin inf inf inf, xmax -inf -inf -infm 
bounding box of vehicle: xmin -2.47489 -0.161927 0.0631, xmax 0 0.161927 0.5139m 
gts area: 4.03325 
yplus max: 3.78537, yplus min: 0.0826361 
position of yplus max: -2.47422 0.16113 0.106396 
yplus prom: 0.809833 
forces: 0.094035 0.000832 -0.027399 
Drag coefficient: 0.699175 
torque (ref. CG): -0.000198 (roll) -0.011486 (pitch) -0.001030 (yaw) 
----------------------------------------------------- 
step 1217, time 0.912750, maxvel 3.000000, total vol 359.697, vol(u>maxvel) 0, cell count 0
bounding box (containing cells with vel>maxvel): xmin inf inf inf, xmax -inf -inf -infm 
bounding box of vehicle: xmin -2.47489 -0.161927 0.0631, xmax 0 0.161927 0.5139m 
gts area: 4.03325 
yplus max: 3.78523, yplus min: 0.0824778 
position of yplus max: -2.47422 0.16113 0.106396 
yplus prom: 0.809811 
forces: 0.094028 0.000832 -0.027397 
Drag coefficient: 0.699120 
torque (ref. CG): -0.000198 (roll) -0.011485 (pitch) -0.001030 (yaw) 
----------------------------------------------------- 
step 1218, time 0.913500, maxvel 3.000000, total vol 359.697, vol(u>maxvel) 0, cell count 0
bounding box (containing cells with vel>maxvel): xmin inf inf inf, xmax -inf -inf -infm 
bounding box of vehicle: xmin -2.47489 -0.161927 0.0631, xmax 0 0.161927 0.5139m 
gts area: 4.03325 
yplus max: 3.78508, yplus min: 0.0823276 
position of yplus max: -2.47422 0.16113 0.106396 
yplus prom: 0.809789 
forces: 0.094018 0.000832 -0.027396 
Drag coefficient: 0.699047 
torque (ref. CG): -0.000198 (roll) -0.011486 (pitch) -0.001029 (yaw) 
----------------------------------------------------- 
step 1219, time 0.914250, maxvel 3.000000, total vol 359.697, vol(u>maxvel) 0, cell count 0
bounding box (containing cells with vel>maxvel): xmin inf inf inf, xmax -inf -inf -infm 
bounding box of vehicle: xmin -2.47489 -0.161927 0.0631, xmax 0 0.161927 0.5139m 
gts area: 4.03325 
yplus max: 3.78493, yplus min: 0.0821887 
position of yplus max: -2.47422 0.16113 0.106396 
yplus prom: 0.809767 
forces: 0.094007 0.000831 -0.027392 
Drag coefficient: 0.698964 
torque (ref. CG): -0.000198 (roll) -0.011484 (pitch) -0.001028 (yaw) 
----------------------------------------------------- 
srun: Job step aborted: Waiting up to 32 seconds for job step to finish.
srun: got SIGCONT
slurmstepd: error: *** JOB 140527 ON compute-0-3 CANCELLED AT 2022-09-07T11:22:54 ***
srun: forcing job termination
make: *** [run] Terminado
slurmstepd: error: *** STEP 140527.0 ON compute-0-3 CANCELLED AT 2022-09-07T11:22:54 ***
