Start run at Mon Aug 8 13:45:44 ART 2022
PYTHON_CS_XFLAGS=' -O0 -g3 -ggdb3 -I/usr/include/jsoncpp ' /share/storage/pub/mstorti/saturne-vof/bin/code_saturne  run --param setup.xml

The following have been reloaded with a version change:
  1) llvm/6.0.0 => llvm/3.4.2


The following have been reloaded with a version change:
  1) llvm/3.4.2 => llvm/6.0.0


                      Code_Saturne
                      ************

 Version:   6.1-alpha
 Path:      /share/storage/pub/mstorti/saturne-vof

 Result directory:
   /share/storage/finzeo/GTS_Tunay_2/RESU/20220808-1345


 ****************************************
  Compiling user subroutines and linking
 ****************************************


 ****************************
  Preparing calculation data
 ****************************

 Parallel Code_Saturne on 100 processes.


 ***************************
  Preprocessing calculation
 ***************************


 **********************
  Starting calculation
 **********************

Warning: Process to core binding is enabled and OMP_NUM_THREADS is set to non-zero (1) value
If your program has OpenMP sections, this can cause over-subscription of cores and consequently poor performance
To avoid this, please re-run your application after setting MV2_ENABLE_AFFINITY=0
Use MV2_USE_THREAD_WARNING=0 to suppress this message
step 1, time 0.000143, maxvel 2.000000, total vol 183256, vol(u>maxvel) 183256, cell count 4497745
bounding box (containing cells with vel>maxvel): xmin -37.7456 -17.9463 -0.483139, xmax 116.945 17.9463 32.3328m 
bounding box of vehicle: xmin -12.2 -1.30026 -1.92988e-17, xmax 9.54098e-18 1.30026 3.60025m 
gts area: 163.362 
yplus max: 274.445, yplus min: 0 
position of yplus max: -10.1103 1.3 3.06913 
yplus prom: 58.6815 
forces 9131842.692235 -19667.960234 -350885.153384 
torque (ref. CG) 27535.144328 10644180.333488 119974.557429 
----------------------------------------------------- 
torque_test 0.000000 0.000000 1.000000 
----------------------------------------------------- 
step 2, time 0.000286, maxvel 2.000000, total vol 183256, vol(u>maxvel) 183256, cell count 4497757
bounding box (containing cells with vel>maxvel): xmin -37.7456 -17.9463 -0.483139, xmax 116.945 17.9463 32.3328m 
bounding box of vehicle: xmin -12.2 -1.30026 -1.92988e-17, xmax 9.54098e-18 1.30026 3.60025m 
gts area: 163.362 
yplus max: 306.984, yplus min: 8.14805 
position of yplus max: -11.6111 1.3 2.33007 
yplus prom: 60.7306 
forces 4193379.788052 -52.790795 -517214.705126 
torque (ref. CG) 73.907113 2715722.002002 322.023850 
----------------------------------------------------- 
torque_test 0.000000 0.000000 1.000000 
----------------------------------------------------- 
step 3, time 0.000428, maxvel 2.000000, total vol 183256, vol(u>maxvel) 183256, cell count 4497770
bounding box (containing cells with vel>maxvel): xmin -37.7456 -17.9463 -0.483139, xmax 116.945 17.9463 32.3328m 
bounding box of vehicle: xmin -12.2 -1.30026 -1.92988e-17, xmax 9.54098e-18 1.30026 3.60025m 
gts area: 163.362 
yplus max: 305.06, yplus min: 8.02655 
position of yplus max: -11.6111 1.3 2.33007 
yplus prom: 60.7186 
forces 102402.984404 -267.471159 -21790.880647 
torque (ref. CG) 374.459622 10439.806221 1631.574067 
----------------------------------------------------- 
torque_test 0.000000 0.000000 1.000000 
----------------------------------------------------- 
step 4, time 0.000571, maxvel 2.000000, total vol 183256, vol(u>maxvel) 183256, cell count 4497777
bounding box (containing cells with vel>maxvel): xmin -37.7456 -17.9463 -0.483139, xmax 116.945 17.9463 32.3328m 
bounding box of vehicle: xmin -12.2 -1.30026 -1.92988e-17, xmax 9.54098e-18 1.30026 3.60025m 
gts area: 163.362 
yplus max: 304.76, yplus min: 8.0302 
position of yplus max: -11.6111 1.3 2.33007 
yplus prom: 60.6746 
forces -6539.183250 157.363367 3803.673213 
torque (ref. CG) -220.308714 14047.550048 -959.916542 
----------------------------------------------------- 
torque_test 0.000000 0.000000 1.000000 
----------------------------------------------------- 
step 5, time 0.000714, maxvel 2.000000, total vol 183256, vol(u>maxvel) 183256, cell count 4497783
bounding box (containing cells with vel>maxvel): xmin -37.7456 -17.9463 -0.483139, xmax 116.945 17.9463 32.3328m 
bounding box of vehicle: xmin -12.2 -1.30026 -1.92988e-17, xmax 9.54098e-18 1.30026 3.60025m 
gts area: 163.362 
yplus max: 304.708, yplus min: 8.02276 
position of yplus max: -11.6111 1.3 2.33007 
yplus prom: 60.6603 
forces 3458.058849 39.592115 -242.738749 
torque (ref. CG) -55.428962 3360.576017 -241.511904 
----------------------------------------------------- 
torque_test 0.000000 0.000000 1.000000 
----------------------------------------------------- 
step 6, time 0.000857, maxvel 2.000000, total vol 183256, vol(u>maxvel) 183256, cell count 4497783
bounding box (containing cells with vel>maxvel): xmin -37.7456 -17.9463 -0.483139, xmax 116.945 17.9463 32.3328m 
bounding box of vehicle: xmin -12.2 -1.30026 -1.92988e-17, xmax 9.54098e-18 1.30026 3.60025m 
gts area: 163.362 
yplus max: 304.564, yplus min: 8.01577 
position of yplus max: -11.6111 1.3 2.33007 
yplus prom: 60.6468 
forces 4042.224659 -1.968998 -994.617363 
torque (ref. CG) 2.756597 -408.051394 12.010885 
----------------------------------------------------- 
torque_test 0.000000 0.000000 1.000000 
----------------------------------------------------- 
step 7, time 0.001000, maxvel 2.000000, total vol 183256, vol(u>maxvel) 183256, cell count 4497780
bounding box (containing cells with vel>maxvel): xmin -37.7456 -17.9463 -0.483139, xmax 116.945 17.9463 32.3328m 
bounding box of vehicle: xmin -12.2 -1.30026 -1.92988e-17, xmax 9.54098e-18 1.30026 3.60025m 
gts area: 163.362 
yplus max: 304.385, yplus min: 8.00901 
position of yplus max: -11.6111 1.3 2.33007 
yplus prom: 60.6309 
forces 3716.081191 -1.348413 -967.974186 
torque (ref. CG) 1.887778 -702.128867 8.225318 
----------------------------------------------------- 
torque_test 0.000000 0.000000 1.000000 
----------------------------------------------------- 
step 8, time 0.001142, maxvel 2.000000, total vol 183256, vol(u>maxvel) 183256, cell count 4497777
bounding box (containing cells with vel>maxvel): xmin -37.7456 -17.9463 -0.483139, xmax 116.945 17.9463 32.3328m 
bounding box of vehicle: xmin -12.2 -1.30026 -1.92988e-17, xmax 9.54098e-18 1.30026 3.60025m 
gts area: 163.362 
yplus max: 304.205, yplus min: 8.00224 
position of yplus max: -11.6111 1.3 2.33007 
yplus prom: 60.6127 
forces 3549.658844 0.816670 -941.610383 
torque (ref. CG) -1.143338 -774.300955 -4.981686 
----------------------------------------------------- 
torque_test 0.000000 0.000000 1.000000 
----------------------------------------------------- 
step 9, time 0.001285, maxvel 2.000000, total vol 183256, vol(u>maxvel) 183256, cell count 4497705
bounding box (containing cells with vel>maxvel): xmin -37.7456 -17.9463 -0.483139, xmax 116.945 17.9463 32.3328m 
bounding box of vehicle: xmin -12.2 -1.30026 -1.92988e-17, xmax 9.54098e-18 1.30026 3.60025m 
gts area: 163.362 
yplus max: 304.03, yplus min: 5.42934 
position of yplus max: -11.6111 1.3 2.33007 
yplus prom: 60.5925 
forces 3461.755943 1.391053 -938.373468 
torque (ref. CG) -1.947474 -877.619835 -8.485421 
----------------------------------------------------- 
torque_test 0.000000 0.000000 1.000000 
----------------------------------------------------- 
step 10, time 0.001428, maxvel 2.000000, total vol 183256, vol(u>maxvel) 183256, cell count 4497645
bounding box (containing cells with vel>maxvel): xmin -37.7456 -17.9463 -0.483139, xmax 116.945 17.9463 32.3328m 
bounding box of vehicle: xmin -12.2 -1.30026 -1.92988e-17, xmax 9.54098e-18 1.30026 3.60025m 
gts area: 163.362 
yplus max: 303.858, yplus min: 7.98842 
position of yplus max: -11.6111 1.3 2.33007 
yplus prom: 60.5814 
forces 3403.959893 1.337425 -939.290987 
torque (ref. CG) -1.872394 -964.131170 -8.158290 
----------------------------------------------------- 
torque_test 0.000000 0.000000 1.000000 
----------------------------------------------------- 
step 11, time 0.001571, maxvel 2.000000, total vol 183256, vol(u>maxvel) 183256, cell count 4497705
bounding box (containing cells with vel>maxvel): xmin -37.7456 -17.9463 -0.483139, xmax 116.945 17.9463 32.3328m 
bounding box of vehicle: xmin -12.2 -1.30026 -1.92988e-17, xmax 9.54098e-18 1.30026 3.60025m 
gts area: 163.362 
yplus max: 303.686, yplus min: 4.38151 
position of yplus max: -11.6111 1.3 2.33007 
yplus prom: 60.5827 
forces 3361.526404 1.214327 -940.525713 
torque (ref. CG) -1.700057 -1031.069887 -7.407393 
----------------------------------------------------- 
torque_test 0.000000 0.000000 1.000000 
----------------------------------------------------- 
step 12, time 0.001714, maxvel 2.000000, total vol 183256, vol(u>maxvel) 183256, cell count 4497739
bounding box (containing cells with vel>maxvel): xmin -37.7456 -17.9463 -0.483139, xmax 116.945 17.9463 32.3328m 
bounding box of vehicle: xmin -12.2 -1.30026 -1.92988e-17, xmax 9.54098e-18 1.30026 3.60025m 
gts area: 163.362 
yplus max: 303.513, yplus min: 7.97418 
position of yplus max: -11.6111 1.3 2.33007 
yplus prom: 60.5906 
forces 3328.236789 1.119682 -941.844439 
torque (ref. CG) -1.567555 -1085.719572 -6.830062 
----------------------------------------------------- 
torque_test 0.000000 0.000000 1.000000 
----------------------------------------------------- 
step 13, time 0.001856, maxvel 2.000000, total vol 183256, vol(u>maxvel) 183256, cell count 4497577
bounding box (containing cells with vel>maxvel): xmin -37.7456 -17.9463 -0.483139, xmax 116.945 17.9463 32.3328m 
bounding box of vehicle: xmin -12.2 -1.30026 -1.92988e-17, xmax 9.54098e-18 1.30026 3.60025m 
gts area: 163.362 
yplus max: 303.337, yplus min: 7.96689 
position of yplus max: -11.6111 1.3 2.33007 
yplus prom: 60.5978 
forces 3300.971313 1.032206 -943.226884 
torque (ref. CG) -1.445088 -1132.324155 -6.296456 
----------------------------------------------------- 
torque_test 0.000000 0.000000 1.000000 
----------------------------------------------------- 
step 14, time 0.001999, maxvel 2.000000, total vol 183256, vol(u>maxvel) 183256, cell count 4497495
bounding box (containing cells with vel>maxvel): xmin -37.7456 -17.9463 -0.483139, xmax 116.945 17.9463 32.3328m 
bounding box of vehicle: xmin -12.2 -1.30026 -1.92988e-17, xmax 9.54098e-18 1.30026 3.60025m 
gts area: 163.362 
yplus max: 303.156, yplus min: 7.95949 
position of yplus max: -11.6111 1.3 2.33007 
yplus prom: 60.6037 
forces 3277.972269 0.935769 -944.604124 
torque (ref. CG) -1.310076 -1172.923983 -5.708188 
----------------------------------------------------- 
torque_test 0.000000 0.000000 1.000000 
----------------------------------------------------- 
step 15, time 0.002142, maxvel 2.000000, total vol 183256, vol(u>maxvel) 183256, cell count 4497607
bounding box (containing cells with vel>maxvel): xmin -37.7456 -17.9463 -0.483139, xmax 116.945 17.9463 32.3328m 
bounding box of vehicle: xmin -12.2 -1.30026 -1.92988e-17, xmax 9.54098e-18 1.30026 3.60025m 
gts area: 163.362 
yplus max: 302.97, yplus min: 7.95198 
position of yplus max: -11.6111 1.3 2.33007 
yplus prom: 60.6083 
forces 3258.496279 0.847347 -945.743950 
torque (ref. CG) -1.186286 -1207.143307 -5.168818 
----------------------------------------------------- 
torque_test 0.000000 0.000000 1.000000 
----------------------------------------------------- 
step 16, time 0.002285, maxvel 2.000000, total vol 183256, vol(u>maxvel) 183256, cell count 4497617
bounding box (containing cells with vel>maxvel): xmin -37.7456 -17.9463 -0.483139, xmax 116.945 17.9463 32.3328m 
bounding box of vehicle: xmin -12.2 -1.30026 -1.92988e-17, xmax 9.54098e-18 1.30026 3.60025m 
gts area: 163.362 
yplus max: 302.778, yplus min: 7.94437 
position of yplus max: -11.6111 1.3 2.33007 
yplus prom: 60.6114 
forces 3242.321057 0.762383 -946.800403 
torque (ref. CG) -1.067336 -1236.232981 -4.650538 
----------------------------------------------------- 
torque_test 0.000000 0.000000 1.000000 
----------------------------------------------------- 
step 17, time 0.002428, maxvel 2.000000, total vol 183256, vol(u>maxvel) 183256, cell count 4497591
bounding box (containing cells with vel>maxvel): xmin -37.7456 -17.9463 -0.483139, xmax 116.945 17.9463 32.3328m 
bounding box of vehicle: xmin -12.2 -1.30026 -1.92988e-17, xmax 9.54098e-18 1.30026 3.60025m 
gts area: 163.362 
yplus max: 302.58, yplus min: 7.93664 
position of yplus max: -11.6111 1.3 2.33007 
yplus prom: 60.6132 
forces 3228.536668 0.681219 -947.835624 
torque (ref. CG) -0.953706 -1261.845969 -4.155433 
----------------------------------------------------- 
torque_test 0.000000 0.000000 1.000000 
----------------------------------------------------- 
step 18, time 0.002570, maxvel 2.000000, total vol 183256, vol(u>maxvel) 183256, cell count 4497559
bounding box (containing cells with vel>maxvel): xmin -37.7456 -17.9463 -0.483139, xmax 116.945 17.9463 32.3328m 
bounding box of vehicle: xmin -12.2 -1.30026 -1.92988e-17, xmax 9.54098e-18 1.30026 3.60025m 
gts area: 163.362 
yplus max: 302.376, yplus min: 7.92881 
position of yplus max: -11.6111 1.3 2.33007 
yplus prom: 60.6138 
forces 3216.581379 0.608528 -948.825710 
torque (ref. CG) -0.851939 -1284.622904 -3.712022 
----------------------------------------------------- 
torque_test 0.000000 0.000000 1.000000 
----------------------------------------------------- 
step 19, time 0.002713, maxvel 2.000000, total vol 183256, vol(u>maxvel) 183256, cell count 4497590
bounding box (containing cells with vel>maxvel): xmin -37.7456 -17.9463 -0.483139, xmax 116.945 17.9463 32.3328m 
bounding box of vehicle: xmin -12.2 -1.30026 -1.92988e-17, xmax 9.54098e-18 1.30026 3.60025m 
gts area: 163.362 
yplus max: 302.166, yplus min: 7.92088 
position of yplus max: -11.6111 1.3 2.33007 
yplus prom: 60.6134 
forces 3206.135580 0.542076 -949.809399 
torque (ref. CG) -0.758906 -1305.247524 -3.306664 
----------------------------------------------------- 
torque_test 0.000000 0.000000 1.000000 
----------------------------------------------------- 
step 20, time 0.002856, maxvel 2.000000, total vol 183256, vol(u>maxvel) 183256, cell count 4497527
bounding box (containing cells with vel>maxvel): xmin -37.7456 -17.9463 -0.483139, xmax 116.945 17.9463 32.3328m 
bounding box of vehicle: xmin -12.2 -1.30026 -1.92988e-17, xmax 9.54098e-18 1.30026 3.60025m 
gts area: 163.362 
yplus max: 301.951, yplus min: 7.66886 
position of yplus max: -11.6111 1.3 2.33007 
yplus prom: 60.6121 
forces 3196.953202 0.485196 -950.768721 
torque (ref. CG) -0.679274 -1323.954718 -2.959695 
----------------------------------------------------- 
torque_test 0.000000 0.000000 1.000000 
----------------------------------------------------- 
step 21, time 0.002999, maxvel 2.000000, total vol 183256, vol(u>maxvel) 183256, cell count 4497521
bounding box (containing cells with vel>maxvel): xmin -37.7456 -17.9463 -0.483139, xmax 116.945 17.9463 32.3328m 
bounding box of vehicle: xmin -12.2 -1.30026 -1.92988e-17, xmax 9.54098e-18 1.30026 3.60025m 
gts area: 163.362 
yplus max: 301.731, yplus min: 1.76005 
position of yplus max: -11.6111 1.3 2.33007 
yplus prom: 60.6102 
forces 3189.029287 0.423987 -951.702258 
torque (ref. CG) -0.593582 -1340.742770 -2.586321 
----------------------------------------------------- 
torque_test 0.000000 0.000000 1.000000 
----------------------------------------------------- 
step 22, time 0.003142, maxvel 2.000000, total vol 183256, vol(u>maxvel) 183256, cell count 4497537
bounding box (containing cells with vel>maxvel): xmin -37.7456 -17.9463 -0.483139, xmax 116.945 17.9463 32.3328m 
bounding box of vehicle: xmin -12.2 -1.30026 -1.92988e-17, xmax 9.54098e-18 1.30026 3.60025m 
gts area: 163.362 
yplus max: 301.506, yplus min: 6.0469 
position of yplus max: -11.6111 1.3 2.33007 
yplus prom: 60.6102 
forces 3181.928503 0.384303 -952.635414 
torque (ref. CG) -0.538024 -1356.376120 -2.344246 
----------------------------------------------------- 
torque_test 0.000000 0.000000 1.000000 
----------------------------------------------------- 
step 23, time 0.003284, maxvel 2.000000, total vol 183256, vol(u>maxvel) 183256, cell count 4497529
bounding box (containing cells with vel>maxvel): xmin -37.7456 -17.9463 -0.483139, xmax 116.945 17.9463 32.3328m 
bounding box of vehicle: xmin -12.2 -1.30026 -1.92988e-17, xmax 9.54098e-18 1.30026 3.60025m 
gts area: 163.362 
yplus max: 301.277, yplus min: 4.89958 
position of yplus max: -11.6111 1.3 2.33007 
yplus prom: 60.6105 
forces 3175.857221 0.341170 -953.494740 
torque (ref. CG) -0.477638 -1370.117806 -2.081137 
----------------------------------------------------- 
torque_test 0.000000 0.000000 1.000000 
----------------------------------------------------- 
step 24, time 0.003427, maxvel 2.000000, total vol 183256, vol(u>maxvel) 183256, cell count 4497461
bounding box (containing cells with vel>maxvel): xmin -37.7456 -17.9463 -0.483139, xmax 116.945 17.9463 32.3328m 
bounding box of vehicle: xmin -12.2 -1.30026 -1.92988e-17, xmax 9.54098e-18 1.30026 3.60025m 
gts area: 163.362 
yplus max: 301.044, yplus min: 2.98527 
position of yplus max: -11.6111 1.3 2.33007 
yplus prom: 60.6107 
forces 3171.032432 0.304760 -954.256028 
torque (ref. CG) -0.426664 -1381.516369 -1.859037 
----------------------------------------------------- 
torque_test 0.000000 0.000000 1.000000 
----------------------------------------------------- 
step 25, time 0.003570, maxvel 2.000000, total vol 183256, vol(u>maxvel) 183256, cell count 4497435
bounding box (containing cells with vel>maxvel): xmin -37.7456 -17.9463 -0.483139, xmax 116.945 17.9463 32.3328m 
bounding box of vehicle: xmin -12.2 -1.30026 -1.92988e-17, xmax 9.54098e-18 1.30026 3.60025m 
gts area: 163.362 
yplus max: 300.808, yplus min: 6.00616 
position of yplus max: -11.6111 1.3 2.33007 
yplus prom: 60.6109 
forces 3167.322741 0.274790 -954.961161 
torque (ref. CG) -0.384706 -1391.011245 -1.676218 
----------------------------------------------------- 
torque_test 0.000000 0.000000 1.000000 
----------------------------------------------------- 
step 26, time 0.003713, maxvel 2.000000, total vol 183256, vol(u>maxvel) 183256, cell count 4497520
bounding box (containing cells with vel>maxvel): xmin -37.7456 -17.9463 -0.483139, xmax 116.945 17.9463 32.3328m 
bounding box of vehicle: xmin -12.2 -1.30026 -1.92988e-17, xmax 9.54098e-18 1.30026 3.60025m 
gts area: 163.362 
yplus max: 300.569, yplus min: 7.86258 
position of yplus max: -11.6111 1.3 2.33007 
yplus prom: 60.6111 
forces 3164.495876 0.249194 -955.625654 
torque (ref. CG) -0.348872 -1399.022263 -1.520084 
----------------------------------------------------- 
torque_test 0.000000 0.000000 1.000000 
----------------------------------------------------- 
step 27, time 0.003856, maxvel 2.000000, total vol 183256, vol(u>maxvel) 183256, cell count 4497571
bounding box (containing cells with vel>maxvel): xmin -37.7456 -17.9463 -0.483139, xmax 116.945 17.9463 32.3328m 
bounding box of vehicle: xmin -12.2 -1.30026 -1.92988e-17, xmax 9.54098e-18 1.30026 3.60025m 
gts area: 163.362 
yplus max: 300.327, yplus min: 7.85387 
position of yplus max: -11.6111 1.3 2.33007 
yplus prom: 60.611 
forces 3162.343038 0.227963 -956.249918 
torque (ref. CG) -0.319148 -1405.844248 -1.390572 
----------------------------------------------------- 
torque_test 0.000000 0.000000 1.000000 
----------------------------------------------------- 
step 28, time 0.003998, maxvel 2.000000, total vol 183256, vol(u>maxvel) 183256, cell count 4497613
bounding box (containing cells with vel>maxvel): xmin -37.7456 -17.9463 -0.483139, xmax 116.945 17.9463 32.3328m 
bounding box of vehicle: xmin -12.2 -1.30026 -1.92988e-17, xmax 9.54098e-18 1.30026 3.60025m 
gts area: 163.362 
yplus max: 300.083, yplus min: 7.84506 
position of yplus max: -11.6111 1.3 2.33007 
yplus prom: 60.6106 
forces 3160.684759 0.209361 -956.846766 
torque (ref. CG) -0.293105 -1411.806609 -1.277100 
----------------------------------------------------- 
torque_test 0.000000 0.000000 1.000000 
----------------------------------------------------- 
step 29, time 0.004141, maxvel 2.000000, total vol 183256, vol(u>maxvel) 183256, cell count 4497541
bounding box (containing cells with vel>maxvel): xmin -37.7456 -17.9463 -0.483139, xmax 116.945 17.9463 32.3328m 
bounding box of vehicle: xmin -12.2 -1.30026 -1.92988e-17, xmax 9.54098e-18 1.30026 3.60025m 
gts area: 163.362 
yplus max: 299.836, yplus min: 7.47003 
position of yplus max: -11.6111 1.3 2.33007 
yplus prom: 60.61 
forces 3159.388538 0.196750 -957.452615 
torque (ref. CG) -0.275450 -1417.317000 -1.200175 
----------------------------------------------------- 
torque_test 0.000000 0.000000 1.000000 
----------------------------------------------------- 
step 30, time 0.004284, maxvel 2.000000, total vol 183256, vol(u>maxvel) 183256, cell count 4497503
bounding box (containing cells with vel>maxvel): xmin -37.7456 -17.9463 -0.483139, xmax 116.945 17.9463 32.3328m 
bounding box of vehicle: xmin -12.2 -1.30026 -1.92988e-17, xmax 9.54098e-18 1.30026 3.60025m 
gts area: 163.362 
yplus max: 299.588, yplus min: 4.23962 
position of yplus max: -11.6111 1.3 2.33007 
yplus prom: 60.6092 
forces 3158.350158 0.185908 -958.003026 
torque (ref. CG) -0.260271 -1422.128236 -1.134040 
----------------------------------------------------- 
torque_test 0.000000 0.000000 1.000000 
----------------------------------------------------- 
step 31, time 0.004427, maxvel 2.000000, total vol 183256, vol(u>maxvel) 183256, cell count 4497489
bounding box (containing cells with vel>maxvel): xmin -37.7456 -17.9463 -0.483139, xmax 116.945 17.9463 32.3328m 
bounding box of vehicle: xmin -12.2 -1.30026 -1.92988e-17, xmax 9.54098e-18 1.30026 3.60025m 
gts area: 163.362 
yplus max: 299.339, yplus min: 4.98271 
position of yplus max: -11.6111 1.3 2.33007 
yplus prom: 60.6085 
forces 3157.488229 0.174890 -958.566777 
torque (ref. CG) -0.244847 -1426.773817 -1.066832 
----------------------------------------------------- 
torque_test 0.000000 0.000000 1.000000 
----------------------------------------------------- 
step 32, time 0.004570, maxvel 2.000000, total vol 183256, vol(u>maxvel) 183256, cell count 4497521
bounding box (containing cells with vel>maxvel): xmin -37.7456 -17.9463 -0.483139, xmax 116.945 17.9463 32.3328m 
bounding box of vehicle: xmin -12.2 -1.30026 -1.92988e-17, xmax 9.54098e-18 1.30026 3.60025m 
gts area: 163.362 
yplus max: 299.088, yplus min: 7.45534 
position of yplus max: -11.6111 1.3 2.33007 
yplus prom: 60.6078 
forces 3156.839608 0.169559 -959.086138 
torque (ref. CG) -0.237383 -1430.849991 -1.034313 
----------------------------------------------------- 
torque_test 0.000000 0.000000 1.000000 
----------------------------------------------------- 
step 33, time 0.004712, maxvel 2.000000, total vol 183256, vol(u>maxvel) 183256, cell count 4497528
bounding box (containing cells with vel>maxvel): xmin -37.7456 -17.9463 -0.483139, xmax 116.945 17.9463 32.3328m 
bounding box of vehicle: xmin -12.2 -1.30026 -1.92988e-17, xmax 9.54098e-18 1.30026 3.60025m 
gts area: 163.362 
yplus max: 298.837, yplus min: 4.27731 
position of yplus max: -11.6111 1.3 2.33007 
yplus prom: 60.6074 
forces 3156.325680 0.165379 -959.618113 
torque (ref. CG) -0.231530 -1434.814536 -1.008811 
----------------------------------------------------- 
torque_test 0.000000 0.000000 1.000000 
----------------------------------------------------- 
step 34, time 0.004855, maxvel 2.000000, total vol 183256, vol(u>maxvel) 183256, cell count 4497487
bounding box (containing cells with vel>maxvel): xmin -37.7456 -17.9463 -0.483139, xmax 116.945 17.9463 32.3328m 
bounding box of vehicle: xmin -12.2 -1.30026 -1.92988e-17, xmax 9.54098e-18 1.30026 3.60025m 
gts area: 163.362 
yplus max: 298.585, yplus min: 2.37817 
position of yplus max: -11.6111 1.3 2.33007 
yplus prom: 60.6077 
forces 3156.174148 0.160510 -960.070398 
torque (ref. CG) -0.224714 -1437.785618 -0.979112 
----------------------------------------------------- 
torque_test 0.000000 0.000000 1.000000 
----------------------------------------------------- 
step 35, time 0.004998, maxvel 2.000000, total vol 183256, vol(u>maxvel) 183256, cell count 4497406
bounding box (containing cells with vel>maxvel): xmin -37.7456 -17.9463 -0.483139, xmax 116.945 17.9463 32.3328m 
bounding box of vehicle: xmin -12.2 -1.30026 -1.92988e-17, xmax 9.54098e-18 1.30026 3.60025m 
gts area: 163.362 
yplus max: 298.333, yplus min: 4.04239 
position of yplus max: -11.6111 1.3 2.33007 
yplus prom: 60.6095 
forces 3156.313753 0.160477 -960.494456 
torque (ref. CG) -0.224668 -1440.176926 -0.978913 
----------------------------------------------------- 
torque_test 0.000000 0.000000 1.000000 
----------------------------------------------------- 
step 36, time 0.005141, maxvel 2.000000, total vol 183256, vol(u>maxvel) 183256, cell count 4497342
bounding box (containing cells with vel>maxvel): xmin -37.7456 -17.9463 -0.483139, xmax 116.945 17.9463 32.3328m 
bounding box of vehicle: xmin -12.2 -1.30026 -1.92988e-17, xmax 9.54098e-18 1.30026 3.60025m 
gts area: 163.362 
yplus max: 298.081, yplus min: 6.82191 
position of yplus max: -11.6111 1.3 2.33007 
yplus prom: 60.6118 
forces 3156.608949 0.159404 -960.858876 
torque (ref. CG) -0.223165 -1441.986616 -0.972362 
----------------------------------------------------- 
torque_test 0.000000 0.000000 1.000000 
----------------------------------------------------- 
step 37, time 0.005284, maxvel 2.000000, total vol 183256, vol(u>maxvel) 183256, cell count 4497349
bounding box (containing cells with vel>maxvel): xmin -37.7456 -17.9463 -0.483139, xmax 116.945 17.9463 32.3328m 
bounding box of vehicle: xmin -12.2 -1.30026 -1.92988e-17, xmax 9.54098e-18 1.30026 3.60025m 
gts area: 163.362 
yplus max: 297.829, yplus min: 7.76178 
position of yplus max: -11.6111 1.3 2.33007 
yplus prom: 60.6143 
forces 3156.907429 0.159783 -961.205119 
torque (ref. CG) -0.223696 -1443.680826 -0.974677 
----------------------------------------------------- 
torque_test 0.000000 0.000000 1.000000 
----------------------------------------------------- 
step 38, time 0.005426, maxvel 2.000000, total vol 183256, vol(u>maxvel) 183256, cell count 4497331
bounding box (containing cells with vel>maxvel): xmin -37.7456 -17.9463 -0.483139, xmax 116.945 17.9463 32.3328m 
bounding box of vehicle: xmin -12.2 -1.30026 -1.92988e-17, xmax 9.54098e-18 1.30026 3.60025m 
gts area: 163.362 
yplus max: 297.577, yplus min: 7.75211 
position of yplus max: -11.6111 1.3 2.33007 
yplus prom: 60.6169 
forces 3157.181646 0.157021 -961.532481 
torque (ref. CG) -0.219829 -1445.293832 -0.957827 
----------------------------------------------------- 
torque_test 0.000000 0.000000 1.000000 
----------------------------------------------------- 
step 39, time 0.005569, maxvel 2.000000, total vol 183256, vol(u>maxvel) 183256, cell count 4497351
bounding box (containing cells with vel>maxvel): xmin -37.7456 -17.9463 -0.483139, xmax 116.945 17.9463 32.3328m 
bounding box of vehicle: xmin -12.2 -1.30026 -1.92988e-17, xmax 9.54098e-18 1.30026 3.60025m 
gts area: 163.362 
yplus max: 297.327, yplus min: 7.74235 
position of yplus max: -11.6111 1.3 2.33007 
yplus prom: 60.6197 
forces 3157.519505 0.166603 -961.823819 
torque (ref. CG) -0.233244 -1446.597991 -1.016276 
----------------------------------------------------- 
torque_test 0.000000 0.000000 1.000000 
----------------------------------------------------- 
step 40, time 0.005712, maxvel 2.000000, total vol 183256, vol(u>maxvel) 183256, cell count 4497403
bounding box (containing cells with vel>maxvel): xmin -37.7456 -17.9463 -0.483139, xmax 116.945 17.9463 32.3328m 
bounding box of vehicle: xmin -12.2 -1.30026 -1.92988e-17, xmax 9.54098e-18 1.30026 3.60025m 
gts area: 163.362 
yplus max: 297.077, yplus min: 7.73252 
position of yplus max: -11.6111 1.3 2.33007 
yplus prom: 60.6225 
forces 3157.769535 0.165063 -962.123613 
torque (ref. CG) -0.231089 -1448.076693 -1.006887 
----------------------------------------------------- 
torque_test 0.000000 0.000000 1.000000 
----------------------------------------------------- 
step 41, time 0.005855, maxvel 2.000000, total vol 183256, vol(u>maxvel) 183256, cell count 4497521
bounding box (containing cells with vel>maxvel): xmin -37.7456 -17.9463 -0.483139, xmax 116.945 17.9463 32.3328m 
bounding box of vehicle: xmin -12.2 -1.30026 -1.92988e-17, xmax 9.54098e-18 1.30026 3.60025m 
gts area: 163.362 
yplus max: 296.828, yplus min: 7.47503 
position of yplus max: -11.6111 1.3 2.33007 
yplus prom: 60.6255 
forces 3157.984533 0.167357 -962.384665 
torque (ref. CG) -0.234299 -1449.368112 -1.020875 
----------------------------------------------------- 
torque_test 0.000000 0.000000 1.000000 
----------------------------------------------------- 
step 42, time 0.005998, maxvel 2.000000, total vol 183256, vol(u>maxvel) 183256, cell count 4497573
bounding box (containing cells with vel>maxvel): xmin -37.7456 -17.9463 -0.483139, xmax 116.945 17.9463 32.3328m 
bounding box of vehicle: xmin -12.2 -1.30026 -1.92988e-17, xmax 9.54098e-18 1.30026 3.60025m 
gts area: 163.362 
yplus max: 296.581, yplus min: 5.25586 
position of yplus max: -11.6111 1.3 2.33007 
yplus prom: 60.6285 
forces 3158.351016 0.166384 -962.638925 
torque (ref. CG) -0.232938 -1450.406017 -1.014945 
----------------------------------------------------- 
torque_test 0.000000 0.000000 1.000000 
----------------------------------------------------- 
step 43, time 0.006140, maxvel 2.000000, total vol 183256, vol(u>maxvel) 183256, cell count 4497575
bounding box (containing cells with vel>maxvel): xmin -37.7456 -17.9463 -0.483139, xmax 116.945 17.9463 32.3328m 
bounding box of vehicle: xmin -12.2 -1.30026 -1.92988e-17, xmax 9.54098e-18 1.30026 3.60025m 
gts area: 163.362 
yplus max: 296.335, yplus min: 3.13115 
position of yplus max: -11.6111 1.3 2.33007 
yplus prom: 60.6317 
forces 3158.860240 0.170001 -962.824766 
torque (ref. CG) -0.238001 -1450.826739 -1.037005 
----------------------------------------------------- 
torque_test 0.000000 0.000000 1.000000 
----------------------------------------------------- 
step 44, time 0.006283, maxvel 2.000000, total vol 183256, vol(u>maxvel) 183256, cell count 4497561
bounding box (containing cells with vel>maxvel): xmin -37.7456 -17.9463 -0.483139, xmax 116.945 17.9463 32.3328m 
bounding box of vehicle: xmin -12.2 -1.30026 -1.92988e-17, xmax 9.54098e-18 1.30026 3.60025m 
gts area: 163.362 
yplus max: 296.092, yplus min: 5.81586 
position of yplus max: -11.6111 1.3 2.33007 
yplus prom: 60.6352 
forces 3159.374321 0.176361 -963.003033 
torque (ref. CG) -0.246906 -1451.194450 -1.075805 
----------------------------------------------------- 
torque_test 0.000000 0.000000 1.000000 
----------------------------------------------------- 
step 45, time 0.006426, maxvel 2.000000, total vol 183256, vol(u>maxvel) 183256, cell count 4497487
bounding box (containing cells with vel>maxvel): xmin -37.7456 -17.9463 -0.483139, xmax 116.945 17.9463 32.3328m 
bounding box of vehicle: xmin -12.2 -1.30026 -1.92988e-17, xmax 9.54098e-18 1.30026 3.60025m 
gts area: 163.362 
yplus max: 295.85, yplus min: 7.5867 
position of yplus max: -11.6111 1.3 2.33007 
yplus prom: 60.6388 
forces 3159.821571 0.178876 -963.161430 
torque (ref. CG) -0.250426 -1451.534522 -1.091141 
----------------------------------------------------- 
torque_test 0.000000 0.000000 1.000000 
----------------------------------------------------- 
step 46, time 0.006569, maxvel 2.000000, total vol 183256, vol(u>maxvel) 183256, cell count 4497449
bounding box (containing cells with vel>maxvel): xmin -37.7456 -17.9463 -0.483139, xmax 116.945 17.9463 32.3328m 
bounding box of vehicle: xmin -12.2 -1.30026 -1.92988e-17, xmax 9.54098e-18 1.30026 3.60025m 
gts area: 163.362 
yplus max: 295.611, yplus min: 7.67195 
position of yplus max: -11.6111 1.3 2.33007 
yplus prom: 60.6425 
forces 3160.176416 0.180173 -963.319559 
torque (ref. CG) -0.252242 -1452.002327 -1.099053 
----------------------------------------------------- 
torque_test 0.000000 0.000000 1.000000 
----------------------------------------------------- 
step 47, time 0.006712, maxvel 2.000000, total vol 183256, vol(u>maxvel) 183256, cell count 4497441
bounding box (containing cells with vel>maxvel): xmin -37.7456 -17.9463 -0.483139, xmax 116.945 17.9463 32.3328m 
bounding box of vehicle: xmin -12.2 -1.30026 -1.92988e-17, xmax 9.54098e-18 1.30026 3.60025m 
gts area: 163.362 
yplus max: 295.374, yplus min: 7.6616 
position of yplus max: -11.6111 1.3 2.33007 
yplus prom: 60.6463 
forces 3160.479766 0.182567 -963.472482 
torque (ref. CG) -0.255593 -1452.510466 -1.113656 
----------------------------------------------------- 
torque_test 0.000000 0.000000 1.000000 
----------------------------------------------------- 
step 48, time 0.006854, maxvel 2.000000, total vol 183256, vol(u>maxvel) 183256, cell count 4497407
bounding box (containing cells with vel>maxvel): xmin -37.7456 -17.9463 -0.483139, xmax 116.945 17.9463 32.3328m 
bounding box of vehicle: xmin -12.2 -1.30026 -1.92988e-17, xmax 9.54098e-18 1.30026 3.60025m 
gts area: 163.362 
yplus max: 295.14, yplus min: 7.65119 
position of yplus max: -11.6111 1.3 2.33007 
yplus prom: 60.6503 
forces 3160.805953 0.187190 -963.613681 
torque (ref. CG) -0.262066 -1452.915117 -1.141860 
----------------------------------------------------- 
torque_test 0.000000 0.000000 1.000000 
----------------------------------------------------- 
step 49, time 0.006997, maxvel 2.000000, total vol 183256, vol(u>maxvel) 183256, cell count 4497391
bounding box (containing cells with vel>maxvel): xmin -37.7456 -17.9463 -0.483139, xmax 116.945 17.9463 32.3328m 
bounding box of vehicle: xmin -12.2 -1.30026 -1.92988e-17, xmax 9.54098e-18 1.30026 3.60025m 
gts area: 163.362 
yplus max: 294.909, yplus min: 7.64071 
position of yplus max: -11.6111 1.3 2.33007 
yplus prom: 60.6543 
forces 3161.097899 0.187592 -963.747917 
torque (ref. CG) -0.262629 -1453.325232 -1.144314 
----------------------------------------------------- 
torque_test 0.000000 0.000000 1.000000 
----------------------------------------------------- 
step 50, time 0.007140, maxvel 2.000000, total vol 183256, vol(u>maxvel) 183256, cell count 4497399
bounding box (containing cells with vel>maxvel): xmin -37.7456 -17.9463 -0.483139, xmax 116.945 17.9463 32.3328m 
bounding box of vehicle: xmin -12.2 -1.30026 -1.92988e-17, xmax 9.54098e-18 1.30026 3.60025m 
gts area: 163.362 
yplus max: 294.68, yplus min: 7.63016 
position of yplus max: -11.6111 1.3 2.33007 
yplus prom: 60.6585 
forces 3161.458266 0.189032 -963.868531 
torque (ref. CG) -0.264644 -1453.556468 -1.153092 
----------------------------------------------------- 
torque_test 0.000000 0.000000 1.000000 
----------------------------------------------------- 
step 51, time 0.007283, maxvel 2.000000, total vol 183256, vol(u>maxvel) 183256, cell count 4497425
bounding box (containing cells with vel>maxvel): xmin -37.7456 -17.9463 -0.483139, xmax 116.945 17.9463 32.3328m 
bounding box of vehicle: xmin -12.2 -1.30026 -1.92988e-17, xmax 9.54098e-18 1.30026 3.60025m 
gts area: 163.362 
yplus max: 294.456, yplus min: 6.51864 
position of yplus max: -11.6111 1.3 2.33007 
yplus prom: 60.6629 
forces 3161.885736 0.190556 -963.948067 
torque (ref. CG) -0.266778 -1453.443178 -1.162389 
----------------------------------------------------- 
torque_test 0.000000 0.000000 1.000000 
----------------------------------------------------- 
step 52, time 0.007426, maxvel 2.000000, total vol 183256, vol(u>maxvel) 183256, cell count 4497451
bounding box (containing cells with vel>maxvel): xmin -37.7456 -17.9463 -0.483139, xmax 116.945 17.9463 32.3328m 
bounding box of vehicle: xmin -12.2 -1.30026 -1.92988e-17, xmax 9.54098e-18 1.30026 3.60025m 
gts area: 163.362 
yplus max: 294.234, yplus min: 4.62034 
position of yplus max: -11.6111 1.3 2.33007 
yplus prom: 60.6674 
forces 3162.284168 0.192045 -964.004502 
torque (ref. CG) -0.268862 -1453.229628 -1.171472 
----------------------------------------------------- 
torque_test 0.000000 0.000000 1.000000 
----------------------------------------------------- 
step 53, time 0.007568, maxvel 2.000000, total vol 183256, vol(u>maxvel) 183256, cell count 4497447
bounding box (containing cells with vel>maxvel): xmin -37.7456 -17.9463 -0.483139, xmax 116.945 17.9463 32.3328m 
bounding box of vehicle: xmin -12.2 -1.30026 -1.92988e-17, xmax 9.54098e-18 1.30026 3.60025m 
gts area: 163.362 
yplus max: 294.017, yplus min: 3.52695 
position of yplus max: -11.6111 1.3 2.33007 
yplus prom: 60.6722 
forces 3162.586827 0.192254 -964.045189 
torque (ref. CG) -0.269156 -1453.054096 -1.172749 
----------------------------------------------------- 
torque_test 0.000000 0.000000 1.000000 
----------------------------------------------------- 
step 54, time 0.007711, maxvel 2.000000, total vol 183256, vol(u>maxvel) 183256, cell count 4497427
bounding box (containing cells with vel>maxvel): xmin -37.7456 -17.9463 -0.483139, xmax 116.945 17.9463 32.3328m 
bounding box of vehicle: xmin -12.2 -1.30026 -1.92988e-17, xmax 9.54098e-18 1.30026 3.60025m 
gts area: 163.362 
yplus max: 293.803, yplus min: 4.36279 
position of yplus max: -11.6111 1.3 2.33007 
yplus prom: 60.6774 
forces 3162.768371 0.193900 -964.075630 
torque (ref. CG) -0.271460 -1452.985625 -1.182790 
----------------------------------------------------- 
torque_test 0.000000 0.000000 1.000000 
----------------------------------------------------- 
step 55, time 0.007854, maxvel 2.000000, total vol 183256, vol(u>maxvel) 183256, cell count 4497401
bounding box (containing cells with vel>maxvel): xmin -37.7456 -17.9463 -0.483139, xmax 116.945 17.9463 32.3328m 
bounding box of vehicle: xmin -12.2 -1.30026 -1.92988e-17, xmax 9.54098e-18 1.30026 3.60025m 
gts area: 163.362 
yplus max: 293.594, yplus min: 4.30895 
position of yplus max: -11.6111 1.3 2.33007 
yplus prom: 60.6835 
forces 3162.818979 0.191612 -964.094195 
torque (ref. CG) -0.268257 -1453.028018 -1.168834 
----------------------------------------------------- 
torque_test 0.000000 0.000000 1.000000 
----------------------------------------------------- 
step 56, time 0.007997, maxvel 2.000000, total vol 183256, vol(u>maxvel) 183256, cell count 4497401
bounding box (containing cells with vel>maxvel): xmin -37.7456 -17.9463 -0.483139, xmax 116.945 17.9463 32.3328m 
bounding box of vehicle: xmin -12.2 -1.30026 -1.92988e-17, xmax 9.54098e-18 1.30026 3.60025m 
gts area: 163.362 
yplus max: 293.388, yplus min: 6.81356 
position of yplus max: -11.6111 1.3 2.33007 
yplus prom: 60.6906 
forces 3162.744010 0.196223 -964.110896 
torque (ref. CG) -0.274712 -1453.234850 -1.196960 
----------------------------------------------------- 
torque_test 0.000000 0.000000 1.000000 
----------------------------------------------------- 
step 57, time 0.008140, maxvel 2.000000, total vol 183256, vol(u>maxvel) 183256, cell count 4497385
bounding box (containing cells with vel>maxvel): xmin -37.7456 -17.9463 -0.483139, xmax 116.945 17.9463 32.3328m 
bounding box of vehicle: xmin -12.2 -1.30026 -1.92988e-17, xmax 9.54098e-18 1.30026 3.60025m 
gts area: 163.362 
yplus max: 293.187, yplus min: 7.55451 
position of yplus max: -11.6111 1.3 2.33007 
yplus prom: 60.6979 
forces 3162.556090 0.192387 -964.109908 
torque (ref. CG) -0.269342 -1453.491912 -1.173563 
----------------------------------------------------- 
torque_test 0.000000 0.000000 1.000000 
----------------------------------------------------- 
step 58, time 0.008282, maxvel 2.000000, total vol 183256, vol(u>maxvel) 183256, cell count 4497391
bounding box (containing cells with vel>maxvel): xmin -37.7456 -17.9463 -0.483139, xmax 116.945 17.9463 32.3328m 
bounding box of vehicle: xmin -12.2 -1.30026 -1.92988e-17, xmax 9.54098e-18 1.30026 3.60025m 
gts area: 163.362 
yplus max: 292.99, yplus min: 7.54346 
position of yplus max: -11.6111 1.3 2.33007 
yplus prom: 60.7056 
forces 3162.395801 0.194201 -964.075085 
torque (ref. CG) -0.271881 -1453.503898 -1.184623 
----------------------------------------------------- 
torque_test 0.000000 0.000000 1.000000 
----------------------------------------------------- 
step 59, time 0.008425, maxvel 2.000000, total vol 183256, vol(u>maxvel) 183256, cell count 4497411
bounding box (containing cells with vel>maxvel): xmin -37.7456 -17.9463 -0.483139, xmax 116.945 17.9463 32.3328m 
bounding box of vehicle: xmin -12.2 -1.30026 -1.92988e-17, xmax 9.54098e-18 1.30026 3.60025m 
gts area: 163.362 
yplus max: 292.798, yplus min: 7.21355 
position of yplus max: -11.6111 1.3 2.33007 
yplus prom: 60.7135 
forces 3162.330117 0.196495 -964.025906 
torque (ref. CG) -0.275092 -1453.295862 -1.198617 
----------------------------------------------------- 
torque_test 0.000000 0.000000 1.000000 
----------------------------------------------------- 
step 60, time 0.008568, maxvel 2.000000, total vol 183256, vol(u>maxvel) 183256, cell count 4497427
bounding box (containing cells with vel>maxvel): xmin -37.7456 -17.9463 -0.483139, xmax 116.945 17.9463 32.3328m 
bounding box of vehicle: xmin -12.2 -1.30026 -1.92988e-17, xmax 9.54098e-18 1.30026 3.60025m 
gts area: 163.362 
yplus max: 292.611, yplus min: 5.64939 
position of yplus max: -11.6111 1.3 2.33007 
yplus prom: 60.7216 
forces 3162.399638 0.191176 -963.956660 
torque (ref. CG) -0.267646 -1452.776133 -1.166173 
----------------------------------------------------- 
torque_test 0.000000 0.000000 1.000000 
----------------------------------------------------- 
step 61, time 0.008711, maxvel 2.000000, total vol 183256, vol(u>maxvel) 183256, cell count 4497385
bounding box (containing cells with vel>maxvel): xmin -37.7456 -17.9463 -0.483139, xmax 116.945 17.9463 32.3328m 
bounding box of vehicle: xmin -12.2 -1.30026 -1.92988e-17, xmax 9.54098e-18 1.30026 3.60025m 
gts area: 163.362 
yplus max: 292.429, yplus min: 3.73914 
position of yplus max: -11.6111 1.3 2.33007 
yplus prom: 60.7299 
forces 3162.537840 0.195282 -963.862625 
torque (ref. CG) -0.273395 -1452.009033 -1.191223 
----------------------------------------------------- 
torque_test 0.000000 0.000000 1.000000 
----------------------------------------------------- 
step 62, time 0.008854, maxvel 2.000000, total vol 183256, vol(u>maxvel) 183256, cell count 4497377
bounding box (containing cells with vel>maxvel): xmin -37.7456 -17.9463 -0.483139, xmax 116.945 17.9463 32.3328m 
bounding box of vehicle: xmin -12.2 -1.30026 -1.92988e-17, xmax 9.54098e-18 1.30026 3.60025m 
gts area: 163.362 
yplus max: 292.252, yplus min: 3.93628 
position of yplus max: -11.6111 1.3 2.33007 
yplus prom: 60.7384 
forces 3162.661879 0.190057 -963.744954 
torque (ref. CG) -0.266080 -1451.117585 -1.159349 
----------------------------------------------------- 
torque_test 0.000000 0.000000 1.000000 
----------------------------------------------------- 
step 63, time 0.008996, maxvel 2.000000, total vol 183256, vol(u>maxvel) 183256, cell count 4497383
bounding box (containing cells with vel>maxvel): xmin -37.7456 -17.9463 -0.483139, xmax 116.945 17.9463 32.3328m 
bounding box of vehicle: xmin -12.2 -1.30026 -1.92988e-17, xmax 9.54098e-18 1.30026 3.60025m 
gts area: 163.362 
yplus max: 292.079, yplus min: 5.82798 
position of yplus max: -11.6111 1.3 2.33007 
yplus prom: 60.7473 
forces 3162.730814 0.189435 -963.627289 
torque (ref. CG) -0.265209 -1450.303322 -1.155553 
----------------------------------------------------- 
torque_test 0.000000 0.000000 1.000000 
----------------------------------------------------- 
step 64, time 0.009139, maxvel 2.000000, total vol 183256, vol(u>maxvel) 183256, cell count 4497377
bounding box (containing cells with vel>maxvel): xmin -37.7456 -17.9463 -0.483139, xmax 116.945 17.9463 32.3328m 
bounding box of vehicle: xmin -12.2 -1.30026 -1.92988e-17, xmax 9.54098e-18 1.30026 3.60025m 
gts area: 163.362 
yplus max: 291.913, yplus min: 7.36144 
position of yplus max: -11.6111 1.3 2.33007 
yplus prom: 60.7564 
forces 3162.714886 0.186884 -963.505256 
torque (ref. CG) -0.261638 -1449.581223 -1.139993 
----------------------------------------------------- 
torque_test 0.000000 0.000000 1.000000 
----------------------------------------------------- 
step 65, time 0.009282, maxvel 2.000000, total vol 183256, vol(u>maxvel) 183256, cell count 4497381
bounding box (containing cells with vel>maxvel): xmin -37.7456 -17.9463 -0.483139, xmax 116.945 17.9463 32.3328m 
bounding box of vehicle: xmin -12.2 -1.30026 -1.92988e-17, xmax 9.54098e-18 1.30026 3.60025m 
gts area: 163.362 
yplus max: 291.751, yplus min: 7.46459 
position of yplus max: -11.6111 1.3 2.33007 
yplus prom: 60.7656 
forces 3162.593788 0.183119 -963.383475 
torque (ref. CG) -0.256367 -1449.007896 -1.117026 
----------------------------------------------------- 
torque_test 0.000000 0.000000 1.000000 
----------------------------------------------------- 
step 66, time 0.009425, maxvel 2.000000, total vol 183256, vol(u>maxvel) 183256, cell count 4497399
bounding box (containing cells with vel>maxvel): xmin -37.7456 -17.9463 -0.483139, xmax 116.945 17.9463 32.3328m 
bounding box of vehicle: xmin -12.2 -1.30026 -1.92988e-17, xmax 9.54098e-18 1.30026 3.60025m 
gts area: 163.362 
yplus max: 291.595, yplus min: 7.45312 
position of yplus max: -11.6111 1.3 2.33007 
yplus prom: 60.7749 
forces 3162.377948 0.178384 -963.260394 
torque (ref. CG) -0.249738 -1448.559277 -1.088145 
----------------------------------------------------- 
torque_test 0.000000 0.000000 1.000000 
----------------------------------------------------- 
step 67, time 0.009568, maxvel 2.000000, total vol 183256, vol(u>maxvel) 183256, cell count 4497457
bounding box (containing cells with vel>maxvel): xmin -37.7456 -17.9463 -0.483139, xmax 116.945 17.9463 32.3328m 
bounding box of vehicle: xmin -12.2 -1.30026 -1.92988e-17, xmax 9.54098e-18 1.30026 3.60025m 
gts area: 163.362 
yplus max: 291.444, yplus min: 7.44161 
position of yplus max: -11.6111 1.3 2.33007 
yplus prom: 60.7843 
forces 3162.062889 0.174474 -963.132612 
torque (ref. CG) -0.244264 -1448.220889 -1.064293 
----------------------------------------------------- 
torque_test 0.000000 0.000000 1.000000 
----------------------------------------------------- 
step 68, time 0.009710, maxvel 2.000000, total vol 183256, vol(u>maxvel) 183256, cell count 4497451
bounding box (containing cells with vel>maxvel): xmin -37.7456 -17.9463 -0.483139, xmax 116.945 17.9463 32.3328m 
bounding box of vehicle: xmin -12.2 -1.30026 -1.92988e-17, xmax 9.54098e-18 1.30026 3.60025m 
gts area: 163.362 
yplus max: 291.299, yplus min: 7.43004 
position of yplus max: -11.6111 1.3 2.33007 
yplus prom: 60.7939 
forces 3161.647945 0.173896 -963.002427 
torque (ref. CG) -0.243455 -1448.007678 -1.060766 
----------------------------------------------------- 
torque_test 0.000000 0.000000 1.000000 
----------------------------------------------------- 
step 69, time 0.009853, maxvel 2.000000, total vol 183256, vol(u>maxvel) 183256, cell count 4497449
bounding box (containing cells with vel>maxvel): xmin -37.7456 -17.9463 -0.483139, xmax 116.945 17.9463 32.3328m 
bounding box of vehicle: xmin -12.2 -1.30026 -1.92988e-17, xmax 9.54098e-18 1.30026 3.60025m 
gts area: 163.362 
yplus max: 291.159, yplus min: 7.41844 
position of yplus max: -11.6111 1.3 2.33007 
yplus prom: 60.8035 
forces 3161.132007 0.167060 -962.870981 
torque (ref. CG) -0.233884 -1447.928171 -1.019067 
----------------------------------------------------- 
torque_test 0.000000 0.000000 1.000000 
----------------------------------------------------- 
step 70, time 0.009996, maxvel 2.000000, total vol 183256, vol(u>maxvel) 183256, cell count 4497443
bounding box (containing cells with vel>maxvel): xmin -37.7456 -17.9463 -0.483139, xmax 116.945 17.9463 32.3328m 
bounding box of vehicle: xmin -12.2 -1.30026 -1.92988e-17, xmax 9.54098e-18 1.30026 3.60025m 
gts area: 163.362 
yplus max: 291.025, yplus min: 7.40679 
position of yplus max: -11.6111 1.3 2.33007 
yplus prom: 60.8133 
forces 3160.536634 0.158902 -962.731190 
torque (ref. CG) -0.222463 -1447.908970 -0.969304 
----------------------------------------------------- 
torque_test 0.000000 0.000000 1.000000 
----------------------------------------------------- 
step 71, time 0.010139, maxvel 2.000000, total vol 183256, vol(u>maxvel) 183256, cell count 4497449
bounding box (containing cells with vel>maxvel): xmin -37.7456 -17.9463 -0.483139, xmax 116.945 17.9463 32.3328m 
bounding box of vehicle: xmin -12.2 -1.30026 -1.92988e-17, xmax 9.54098e-18 1.30026 3.60025m 
gts area: 163.362 
yplus max: 290.897, yplus min: 7.3951 
position of yplus max: -11.6111 1.3 2.33007 
yplus prom: 60.8231 
forces 3159.915550 0.154466 -962.592532 
torque (ref. CG) -0.216252 -1447.932676 -0.942241 
----------------------------------------------------- 
torque_test 0.000000 0.000000 1.000000 
----------------------------------------------------- 
step 72, time 0.010282, maxvel 2.000000, total vol 183256, vol(u>maxvel) 183256, cell count 4497427
bounding box (containing cells with vel>maxvel): xmin -37.7456 -17.9463 -0.483139, xmax 116.945 17.9463 32.3328m 
bounding box of vehicle: xmin -12.2 -1.30026 -1.92988e-17, xmax 9.54098e-18 1.30026 3.60025m 
gts area: 163.362 
yplus max: 290.774, yplus min: 6.6625 
position of yplus max: -11.6111 1.3 2.33007 
yplus prom: 60.8331 
forces 3159.417426 0.148984 -962.408718 
torque (ref. CG) -0.208577 -1447.508783 -0.908802 
----------------------------------------------------- 
torque_test 0.000000 0.000000 1.000000 
----------------------------------------------------- 
step 73, time 0.010424, maxvel 2.000000, total vol 183256, vol(u>maxvel) 183256, cell count 4497417
bounding box (containing cells with vel>maxvel): xmin -37.7456 -17.9463 -0.483139, xmax 116.945 17.9463 32.3328m 
bounding box of vehicle: xmin -12.2 -1.30026 -1.92988e-17, xmax 9.54098e-18 1.30026 3.60025m 
gts area: 163.362 
yplus max: 290.657, yplus min: 5.76885 
position of yplus max: -11.6111 1.3 2.33007 
yplus prom: 60.8432 
forces 3158.937654 0.144824 -962.218761 
torque (ref. CG) -0.202754 -1447.021723 -0.883428 
----------------------------------------------------- 
torque_test 0.000000 0.000000 1.000000 
----------------------------------------------------- 
step 74, time 0.010567, maxvel 2.000000, total vol 183256, vol(u>maxvel) 183256, cell count 4497397
bounding box (containing cells with vel>maxvel): xmin -37.7456 -17.9463 -0.483139, xmax 116.945 17.9463 32.3328m 
bounding box of vehicle: xmin -12.2 -1.30026 -1.92988e-17, xmax 9.54098e-18 1.30026 3.60025m 
gts area: 163.362 
yplus max: 290.546, yplus min: 5.28518 
position of yplus max: -11.6111 1.3 2.33007 
yplus prom: 60.8533 
forces 3158.422592 0.129924 -962.018319 
torque (ref. CG) -0.181893 -1446.520117 -0.792535 
----------------------------------------------------- 
torque_test 0.000000 0.000000 1.000000 
----------------------------------------------------- 
step 75, time 0.010710, maxvel 2.000000, total vol 183256, vol(u>maxvel) 183256, cell count 4497379
bounding box (containing cells with vel>maxvel): xmin -37.7456 -17.9463 -0.483139, xmax 116.945 17.9463 32.3328m 
bounding box of vehicle: xmin -12.2 -1.30026 -1.92988e-17, xmax 9.54098e-18 1.30026 3.60025m 
gts area: 163.362 
yplus max: 290.44, yplus min: 5.60942 
position of yplus max: -11.6111 1.3 2.33007 
yplus prom: 60.8637 
forces 3157.861323 0.125309 -961.830966 
torque (ref. CG) -0.175433 -1446.163042 -0.764387 
----------------------------------------------------- 
torque_test 0.000000 0.000000 1.000000 
----------------------------------------------------- 
step 76, time 0.010853, maxvel 2.000000, total vol 183256, vol(u>maxvel) 183256, cell count 4497365
bounding box (containing cells with vel>maxvel): xmin -37.7456 -17.9463 -0.483139, xmax 116.945 17.9463 32.3328m 
bounding box of vehicle: xmin -12.2 -1.30026 -1.92988e-17, xmax 9.54098e-18 1.30026 3.60025m 
gts area: 163.362 
yplus max: 290.341, yplus min: 6.45677 
position of yplus max: -11.6111 1.3 2.33007 
yplus prom: 60.8742 
forces 3157.235875 0.117171 -961.631109 
torque (ref. CG) -0.164039 -1445.819541 -0.714742 
----------------------------------------------------- 
torque_test 0.000000 0.000000 1.000000 
----------------------------------------------------- 
step 77, time 0.010996, maxvel 2.000000, total vol 183256, vol(u>maxvel) 183256, cell count 4497347
bounding box (containing cells with vel>maxvel): xmin -37.7456 -17.9463 -0.483139, xmax 116.945 17.9463 32.3328m 
bounding box of vehicle: xmin -12.2 -1.30026 -1.92988e-17, xmax 9.54098e-18 1.30026 3.60025m 
gts area: 163.362 
yplus max: 290.247, yplus min: 5.84187 
position of yplus max: -11.6111 1.3 2.33007 
yplus prom: 60.8848 
forces 3156.532143 0.111969 -961.434692 
torque (ref. CG) -0.156756 -1445.606619 -0.683010 
----------------------------------------------------- 
torque_test 0.000000 0.000000 1.000000 
----------------------------------------------------- 
step 78, time 0.011138, maxvel 2.000000, total vol 183256, vol(u>maxvel) 183256, cell count 4497327
bounding box (containing cells with vel>maxvel): xmin -37.7456 -17.9463 -0.483139, xmax 116.945 17.9463 32.3328m 
bounding box of vehicle: xmin -12.2 -1.30026 -1.92988e-17, xmax 9.54098e-18 1.30026 3.60025m 
gts area: 163.362 
yplus max: 290.158, yplus min: 4.17166 
position of yplus max: -11.6111 1.3 2.33007 
yplus prom: 60.8957 
forces 3155.738397 0.100267 -961.235647 
torque (ref. CG) -0.140373 -1445.503691 -0.611627 
----------------------------------------------------- 
torque_test 0.000000 0.000000 1.000000 
----------------------------------------------------- 
step 79, time 0.011281, maxvel 2.000000, total vol 183256, vol(u>maxvel) 183256, cell count 4497314
bounding box (containing cells with vel>maxvel): xmin -37.7456 -17.9463 -0.483139, xmax 116.945 17.9463 32.3328m 
bounding box of vehicle: xmin -12.2 -1.30026 -1.92988e-17, xmax 9.54098e-18 1.30026 3.60025m 
gts area: 163.362 
yplus max: 290.076, yplus min: 4.66143 
position of yplus max: -11.6111 1.3 2.33007 
yplus prom: 60.907 
forces 3154.871726 0.091166 -961.039847 
torque (ref. CG) -0.127632 -1445.522652 -0.556113 
----------------------------------------------------- 
torque_test 0.000000 0.000000 1.000000 
----------------------------------------------------- 
step 80, time 0.011424, maxvel 2.000000, total vol 183256, vol(u>maxvel) 183256, cell count 4497303
bounding box (containing cells with vel>maxvel): xmin -37.7456 -17.9463 -0.483139, xmax 116.945 17.9463 32.3328m 
bounding box of vehicle: xmin -12.2 -1.30026 -1.92988e-17, xmax 9.54098e-18 1.30026 3.60025m 
gts area: 163.362 
yplus max: 289.999, yplus min: 6.37962 
position of yplus max: -11.6111 1.3 2.33007 
yplus prom: 60.9187 
forces 3153.944358 0.083564 -960.841293 
torque (ref. CG) -0.116990 -1445.609787 -0.509741 
----------------------------------------------------- 
torque_test 0.000000 0.000000 1.000000 
----------------------------------------------------- 
step 81, time 0.011567, maxvel 2.000000, total vol 183256, vol(u>maxvel) 183256, cell count 4497305
bounding box (containing cells with vel>maxvel): xmin -37.7456 -17.9463 -0.483139, xmax 116.945 17.9463 32.3328m 
bounding box of vehicle: xmin -12.2 -1.30026 -1.92988e-17, xmax 9.54098e-18 1.30026 3.60025m 
gts area: 163.362 
yplus max: 289.927, yplus min: 6.65508 
position of yplus max: -11.6111 1.3 2.33007 
yplus prom: 60.9306 
forces 3152.963742 0.075267 -960.648219 
torque (ref. CG) -0.105373 -1445.804895 -0.459126 
----------------------------------------------------- 
torque_test 0.000000 0.000000 1.000000 
----------------------------------------------------- 
step 82, time 0.011710, maxvel 2.000000, total vol 183256, vol(u>maxvel) 183256, cell count 4497295
bounding box (containing cells with vel>maxvel): xmin -37.7456 -17.9463 -0.483139, xmax 116.945 17.9463 32.3328m 
bounding box of vehicle: xmin -12.2 -1.30026 -1.92988e-17, xmax 9.54098e-18 1.30026 3.60025m 
gts area: 163.362 
yplus max: 289.861, yplus min: 5.63964 
position of yplus max: -11.6111 1.3 2.33007 
yplus prom: 60.9426 
forces 3151.938756 0.067093 -960.455046 
torque (ref. CG) -0.093930 -1446.061523 -0.409265 
----------------------------------------------------- 
torque_test 0.000000 0.000000 1.000000 
----------------------------------------------------- 
step 83, time 0.011852, maxvel 2.000000, total vol 183256, vol(u>maxvel) 183256, cell count 4497296
bounding box (containing cells with vel>maxvel): xmin -37.7456 -17.9463 -0.483139, xmax 116.945 17.9463 32.3328m 
bounding box of vehicle: xmin -12.2 -1.30026 -1.92988e-17, xmax 9.54098e-18 1.30026 3.60025m 
gts area: 163.362 
yplus max: 289.801, yplus min: 5.15069 
position of yplus max: -11.6111 1.3 2.33007 
yplus prom: 60.9547 
forces 3150.875064 0.059205 -960.265749 
torque (ref. CG) -0.082888 -1446.395977 -0.361153 
----------------------------------------------------- 
torque_test 0.000000 0.000000 1.000000 
----------------------------------------------------- 
step 84, time 0.011995, maxvel 2.000000, total vol 183256, vol(u>maxvel) 183256, cell count 4497300
bounding box (containing cells with vel>maxvel): xmin -37.7456 -17.9463 -0.483139, xmax 116.945 17.9463 32.3328m 
bounding box of vehicle: xmin -12.2 -1.30026 -1.92988e-17, xmax 9.54098e-18 1.30026 3.60025m 
gts area: 163.362 
yplus max: 289.746, yplus min: 5.68024 
position of yplus max: -11.6111 1.3 2.33007 
yplus prom: 60.9668 
forces 3149.775929 0.057929 -960.099102 
torque (ref. CG) -0.081101 -1446.918222 -0.353369 
----------------------------------------------------- 
torque_test 0.000000 0.000000 1.000000 
----------------------------------------------------- 
step 85, time 0.012138, maxvel 2.000000, total vol 183256, vol(u>maxvel) 183256, cell count 4497307
bounding box (containing cells with vel>maxvel): xmin -37.7456 -17.9463 -0.483139, xmax 116.945 17.9463 32.3328m 
bounding box of vehicle: xmin -12.2 -1.30026 -1.92988e-17, xmax 9.54098e-18 1.30026 3.60025m 
gts area: 163.362 
yplus max: 289.696, yplus min: 6.70863 
position of yplus max: -11.6111 1.3 2.33007 
yplus prom: 60.9791 
forces 3148.659141 0.040756 -959.883899 
torque (ref. CG) -0.057059 -1447.168986 -0.248614 
----------------------------------------------------- 
torque_test 0.000000 0.000000 1.000000 
----------------------------------------------------- 
step 86, time 0.012281, maxvel 2.000000, total vol 183256, vol(u>maxvel) 183256, cell count 4497313
bounding box (containing cells with vel>maxvel): xmin -37.7456 -17.9463 -0.483139, xmax 116.945 17.9463 32.3328m 
bounding box of vehicle: xmin -12.2 -1.30026 -1.92988e-17, xmax 9.54098e-18 1.30026 3.60025m 
gts area: 163.362 
yplus max: 289.651, yplus min: 7.21588 
position of yplus max: -11.6111 1.3 2.33007 
yplus prom: 60.9913 
forces 3147.594747 0.039884 -959.725477 
torque (ref. CG) -0.055837 -1447.692766 -0.243292 
----------------------------------------------------- 
torque_test 0.000000 0.000000 1.000000 
----------------------------------------------------- 
step 87, time 0.012424, maxvel 2.000000, total vol 183256, vol(u>maxvel) 183256, cell count 4497321
bounding box (containing cells with vel>maxvel): xmin -37.7456 -17.9463 -0.483139, xmax 116.945 17.9463 32.3328m 
bounding box of vehicle: xmin -12.2 -1.30026 -1.92988e-17, xmax 9.54098e-18 1.30026 3.60025m 
gts area: 163.362 
yplus max: 289.611, yplus min: 7.20375 
position of yplus max: -11.6111 1.3 2.33007 
yplus prom: 61.0035 
forces 3146.693315 0.028942 -959.487455 
torque (ref. CG) -0.040519 -1447.502832 -0.176548 
----------------------------------------------------- 
torque_test 0.000000 0.000000 1.000000 
----------------------------------------------------- 
step 88, time 0.012566, maxvel 2.000000, total vol 183256, vol(u>maxvel) 183256, cell count 4497331
bounding box (containing cells with vel>maxvel): xmin -37.7456 -17.9463 -0.483139, xmax 116.945 17.9463 32.3328m 
bounding box of vehicle: xmin -12.2 -1.30026 -1.92988e-17, xmax 9.54098e-18 1.30026 3.60025m 
gts area: 163.362 
yplus max: 289.577, yplus min: 7.1916 
position of yplus max: -11.6111 1.3 2.33007 
yplus prom: 61.0157 
forces 3145.860295 0.021157 -959.264114 
torque (ref. CG) -0.029619 -1447.306682 -0.129055 
----------------------------------------------------- 
torque_test 0.000000 0.000000 1.000000 
----------------------------------------------------- 
step 89, time 0.012709, maxvel 2.000000, total vol 183256, vol(u>maxvel) 183256, cell count 4497342
bounding box (containing cells with vel>maxvel): xmin -37.7456 -17.9463 -0.483139, xmax 116.945 17.9463 32.3328m 
bounding box of vehicle: xmin -12.2 -1.30026 -1.92988e-17, xmax 9.54098e-18 1.30026 3.60025m 
gts area: 163.362 
yplus max: 289.547, yplus min: 7.17943 
position of yplus max: -11.6111 1.3 2.33007 
yplus prom: 61.0278 
forces 3145.056073 0.014257 -959.079351 
torque (ref. CG) -0.019959 -1447.305541 -0.086966 
----------------------------------------------------- 
torque_test 0.000000 0.000000 1.000000 
----------------------------------------------------- 
step 90, time 0.012852, maxvel 2.000000, total vol 183256, vol(u>maxvel) 183256, cell count 4497334
bounding box (containing cells with vel>maxvel): xmin -37.7456 -17.9463 -0.483139, xmax 116.945 17.9463 32.3328m 
bounding box of vehicle: xmin -12.2 -1.30026 -1.92988e-17, xmax 9.54098e-18 1.30026 3.60025m 
gts area: 163.362 
yplus max: 289.523, yplus min: 7.16725 
position of yplus max: -11.6111 1.3 2.33007 
yplus prom: 61.0399 
forces 3144.269801 0.006455 -958.913593 
torque (ref. CG) -0.009038 -1447.395193 -0.039378 
----------------------------------------------------- 
torque_test 0.000000 0.000000 1.000000 
----------------------------------------------------- 
step 91, time 0.012995, maxvel 2.000000, total vol 183256, vol(u>maxvel) 183256, cell count 4497317
bounding box (containing cells with vel>maxvel): xmin -37.7456 -17.9463 -0.483139, xmax 116.945 17.9463 32.3328m 
bounding box of vehicle: xmin -12.2 -1.30026 -1.92988e-17, xmax 9.54098e-18 1.30026 3.60025m 
gts area: 163.362 
yplus max: 289.502, yplus min: 7.15506 
position of yplus max: -11.6111 1.3 2.33007 
yplus prom: 61.0519 
forces 3143.505086 -0.004592 -958.714929 
torque (ref. CG) 0.006429 -1447.253946 0.028011 
----------------------------------------------------- 
torque_test 0.000000 0.000000 1.000000 
----------------------------------------------------- 
step 92, time 0.013138, maxvel 2.000000, total vol 183256, vol(u>maxvel) 183256, cell count 4497281
bounding box (containing cells with vel>maxvel): xmin -37.7456 -17.9463 -0.483139, xmax 116.945 17.9463 32.3328m 
bounding box of vehicle: xmin -12.2 -1.30026 -1.92988e-17, xmax 9.54098e-18 1.30026 3.60025m 
gts area: 163.362 
yplus max: 289.487, yplus min: 7.14286 
position of yplus max: -11.6111 1.3 2.33007 
yplus prom: 61.0638 
forces 3142.735894 -0.001111 -958.568828 
torque (ref. CG) 0.001556 -1447.439601 0.006780 
----------------------------------------------------- 
torque_test 0.000000 0.000000 1.000000 
----------------------------------------------------- 
step 93, time 0.013280, maxvel 2.000000, total vol 183256, vol(u>maxvel) 183256, cell count 4497259
bounding box (containing cells with vel>maxvel): xmin -37.7456 -17.9463 -0.483139, xmax 116.945 17.9463 32.3328m 
bounding box of vehicle: xmin -12.2 -1.30026 -1.92988e-17, xmax 9.54098e-18 1.30026 3.60025m 
gts area: 163.362 
yplus max: 289.476, yplus min: 7.13065 
position of yplus max: -11.6111 1.3 2.33007 
yplus prom: 61.0755 
forces 3141.968411 -0.018567 -958.392989 
torque (ref. CG) 0.025994 -1447.441455 0.113259 
----------------------------------------------------- 
torque_test 0.000000 0.000000 1.000000 
----------------------------------------------------- 
step 94, time 0.013423, maxvel 2.000000, total vol 183256, vol(u>maxvel) 183256, cell count 4497249
bounding box (containing cells with vel>maxvel): xmin -37.7456 -17.9463 -0.483139, xmax 116.945 17.9463 32.3328m 
bounding box of vehicle: xmin -12.2 -1.30026 -1.92988e-17, xmax 9.54098e-18 1.30026 3.60025m 
gts area: 163.362 
yplus max: 289.469, yplus min: 7.11843 
position of yplus max: -11.6111 1.3 2.33007 
yplus prom: 61.0872 
forces 3141.187835 -0.017331 -958.255217 
torque (ref. CG) 0.024264 -1447.693855 0.105720 
----------------------------------------------------- 
torque_test 0.000000 0.000000 1.000000 
----------------------------------------------------- 
step 95, time 0.013566, maxvel 2.000000, total vol 183256, vol(u>maxvel) 183256, cell count 4497241
bounding box (containing cells with vel>maxvel): xmin -37.7456 -17.9463 -0.483139, xmax 116.945 17.9463 32.3328m 
bounding box of vehicle: xmin -12.2 -1.30026 -1.92988e-17, xmax 9.54098e-18 1.30026 3.60025m 
gts area: 163.362 
yplus max: 289.466, yplus min: 7.10621 
position of yplus max: -11.6111 1.3 2.33007 
yplus prom: 61.0987 
forces 3140.404720 -0.027777 -958.075184 
torque (ref. CG) 0.038888 -1447.692013 0.169442 
----------------------------------------------------- 
torque_test 0.000000 0.000000 1.000000 
----------------------------------------------------- 
step 96, time 0.013709, maxvel 2.000000, total vol 183256, vol(u>maxvel) 183256, cell count 4497223
bounding box (containing cells with vel>maxvel): xmin -37.7456 -17.9463 -0.483139, xmax 116.945 17.9463 32.3328m 
bounding box of vehicle: xmin -12.2 -1.30026 -1.92988e-17, xmax 9.54098e-18 1.30026 3.60025m 
gts area: 163.362 
yplus max: 289.467, yplus min: 6.54459 
position of yplus max: -11.6111 1.3 2.33007 
yplus prom: 61.1101 
forces 3139.603513 -0.034498 -957.959978 
torque (ref. CG) 0.048297 -1448.110949 0.210436 
----------------------------------------------------- 
torque_test 0.000000 0.000000 1.000000 
----------------------------------------------------- 
step 97, time 0.013852, maxvel 2.000000, total vol 183256, vol(u>maxvel) 183256, cell count 4497221
bounding box (containing cells with vel>maxvel): xmin -37.7456 -17.9463 -0.483139, xmax 116.945 17.9463 32.3328m 
bounding box of vehicle: xmin -12.2 -1.30026 -1.92988e-17, xmax 9.54098e-18 1.30026 3.60025m 
gts area: 163.362 
yplus max: 289.472, yplus min: 6.15154 
position of yplus max: -11.6111 1.3 2.33007 
yplus prom: 61.1213 
forces 3138.803458 -0.040065 -957.836161 
torque (ref. CG) 0.056091 -1448.475740 0.244398 
----------------------------------------------------- 
torque_test 0.000000 0.000000 1.000000 
----------------------------------------------------- 
step 98, time 0.013994, maxvel 2.000000, total vol 183256, vol(u>maxvel) 183256, cell count 4497207
bounding box (containing cells with vel>maxvel): xmin -37.7456 -17.9463 -0.483139, xmax 116.945 17.9463 32.3328m 
bounding box of vehicle: xmin -12.2 -1.30026 -1.92988e-17, xmax 9.54098e-18 1.30026 3.60025m 
gts area: 163.362 
yplus max: 289.481, yplus min: 6.10381 
position of yplus max: -11.6111 1.3 2.33007 
yplus prom: 61.1324 
forces 3138.015294 -0.046799 -957.742690 
torque (ref. CG) 0.065519 -1449.008998 0.285476 
----------------------------------------------------- 
torque_test 0.000000 0.000000 1.000000 
----------------------------------------------------- 
step 99, time 0.014137, maxvel 2.000000, total vol 183256, vol(u>maxvel) 183256, cell count 4497207
bounding box (containing cells with vel>maxvel): xmin -37.7456 -17.9463 -0.483139, xmax 116.945 17.9463 32.3328m 
bounding box of vehicle: xmin -12.2 -1.30026 -1.92988e-17, xmax 9.54098e-18 1.30026 3.60025m 
gts area: 163.362 
yplus max: 289.493, yplus min: 6.42077 
position of yplus max: -11.6111 1.3 2.33007 
yplus prom: 61.1434 
forces 3137.299016 -0.053008 -957.623601 
torque (ref. CG) 0.074211 -1449.285345 0.323349 
----------------------------------------------------- 
torque_test 0.000000 0.000000 1.000000 
----------------------------------------------------- 
step 100, time 0.014280, maxvel 2.000000, total vol 183256, vol(u>maxvel) 183256, cell count 4497227
bounding box (containing cells with vel>maxvel): xmin -37.7456 -17.9463 -0.483139, xmax 116.945 17.9463 32.3328m 
bounding box of vehicle: xmin -12.2 -1.30026 -1.92988e-17, xmax 9.54098e-18 1.30026 3.60025m 
gts area: 163.362 
yplus max: 289.509, yplus min: 6.97236 
position of yplus max: -11.6111 1.3 2.33007 
yplus prom: 61.1543 
forces 3136.588796 -0.051789 -957.510725 
torque (ref. CG) 0.072505 -1449.591107 0.315914 
----------------------------------------------------- 
torque_test 0.000000 0.000000 1.000000 
----------------------------------------------------- 
step 101, time 0.014423, maxvel 2.000000, total vol 183256, vol(u>maxvel) 183256, cell count 4497219
bounding box (containing cells with vel>maxvel): xmin -37.7456 -17.9463 -0.483139, xmax 116.945 17.9463 32.3328m 
bounding box of vehicle: xmin -12.2 -1.30026 -1.92988e-17, xmax 9.54098e-18 1.30026 3.60025m 
gts area: 163.362 
yplus max: 289.528, yplus min: 7.0328 
position of yplus max: -11.6111 1.3 2.33007 
yplus prom: 61.1649 
forces 3135.861737 -0.067047 -957.480917 
torque (ref. CG) 0.093866 -1450.427164 0.408987 
----------------------------------------------------- 
torque_test 0.000000 0.000000 1.000000 
----------------------------------------------------- 
step 102, time 0.014566, maxvel 2.000000, total vol 183256, vol(u>maxvel) 183256, cell count 4497209
bounding box (containing cells with vel>maxvel): xmin -37.7456 -17.9463 -0.483139, xmax 116.945 17.9463 32.3328m 
bounding box of vehicle: xmin -12.2 -1.30026 -1.92988e-17, xmax 9.54098e-18 1.30026 3.60025m 
gts area: 163.362 
yplus max: 289.55, yplus min: 7.02056 
position of yplus max: -11.6111 1.3 2.33007 
yplus prom: 61.1755 
forces 3135.131586 -0.068358 -957.323336 
torque (ref. CG) 0.095702 -1450.488131 0.416985 
----------------------------------------------------- 
torque_test 0.000000 0.000000 1.000000 
----------------------------------------------------- 
step 103, time 0.014708, maxvel 2.000000, total vol 183256, vol(u>maxvel) 183256, cell count 4497205
bounding box (containing cells with vel>maxvel): xmin -37.7456 -17.9463 -0.483139, xmax 116.945 17.9463 32.3328m 
bounding box of vehicle: xmin -12.2 -1.30026 -1.92988e-17, xmax 9.54098e-18 1.30026 3.60025m 
gts area: 163.362 
yplus max: 289.575, yplus min: 5.73053 
position of yplus max: -11.6111 1.3 2.33007 
yplus prom: 61.1858 
forces 3134.380648 -0.074710 -957.271098 
torque (ref. CG) 0.104594 -1451.220788 0.455731 
----------------------------------------------------- 
torque_test 0.000000 0.000000 1.000000 
----------------------------------------------------- 
step 104, time 0.014851, maxvel 2.000000, total vol 183256, vol(u>maxvel) 183256, cell count 4497197
bounding box (containing cells with vel>maxvel): xmin -37.7456 -17.9463 -0.483139, xmax 116.945 17.9463 32.3328m 
bounding box of vehicle: xmin -12.2 -1.30026 -1.92988e-17, xmax 9.54098e-18 1.30026 3.60025m 
gts area: 163.362 
yplus max: 289.603, yplus min: 4.38225 
position of yplus max: -11.6111 1.3 2.33007 
yplus prom: 61.1961 
forces 3133.630628 -0.083047 -957.169349 
torque (ref. CG) 0.116266 -1451.650148 0.506589 
----------------------------------------------------- 
torque_test 0.000000 0.000000 1.000000 
----------------------------------------------------- 
step 105, time 0.014994, maxvel 2.000000, total vol 183256, vol(u>maxvel) 183256, cell count 4497183
bounding box (containing cells with vel>maxvel): xmin -37.7456 -17.9463 -0.483139, xmax 116.945 17.9463 32.3328m 
bounding box of vehicle: xmin -12.2 -1.30026 -1.92988e-17, xmax 9.54098e-18 1.30026 3.60025m 
gts area: 163.362 
yplus max: 289.633, yplus min: 4.2825 
position of yplus max: -11.6111 1.3 2.33007 
yplus prom: 61.2064 
forces 3132.884662 -0.086762 -957.043747 
torque (ref. CG) 0.121467 -1451.928331 0.529249 
----------------------------------------------------- 
torque_test 0.000000 0.000000 1.000000 
----------------------------------------------------- 
step 106, time 0.015137, maxvel 2.000000, total vol 183256, vol(u>maxvel) 183256, cell count 4497163
bounding box (containing cells with vel>maxvel): xmin -37.7456 -17.9463 -0.483139, xmax 116.945 17.9463 32.3328m 
bounding box of vehicle: xmin -12.2 -1.30026 -1.92988e-17, xmax 9.54098e-18 1.30026 3.60025m 
gts area: 163.362 
yplus max: 289.666, yplus min: 3.88258 
position of yplus max: -11.6111 1.3 2.33007 
yplus prom: 61.2167 
forces 3132.137996 -0.088254 -956.917602 
torque (ref. CG) 0.123555 -1452.204176 0.538346 
----------------------------------------------------- 
torque_test 0.000000 0.000000 1.000000 
----------------------------------------------------- 
step 107, time 0.015280, maxvel 2.000000, total vol 183256, vol(u>maxvel) 183256, cell count 4497155
bounding box (containing cells with vel>maxvel): xmin -37.7456 -17.9463 -0.483139, xmax 116.945 17.9463 32.3328m 
bounding box of vehicle: xmin -12.2 -1.30026 -1.92988e-17, xmax 9.54098e-18 1.30026 3.60025m 
gts area: 163.362 
yplus max: 289.701, yplus min: 4.09382 
position of yplus max: -11.6111 1.3 2.33007 
yplus prom: 61.227 
forces 3131.376554 -0.096217 -956.736429 
torque (ref. CG) 0.134704 -1452.165040 0.586926 
----------------------------------------------------- 
torque_test 0.000000 0.000000 1.000000 
----------------------------------------------------- 
step 108, time 0.015422, maxvel 2.000000, total vol 183256, vol(u>maxvel) 183256, cell count 4497147
bounding box (containing cells with vel>maxvel): xmin -37.7456 -17.9463 -0.483139, xmax 116.945 17.9463 32.3328m 
bounding box of vehicle: xmin -12.2 -1.30026 -1.92988e-17, xmax 9.54098e-18 1.30026 3.60025m 
gts area: 163.362 
yplus max: 289.738, yplus min: 4.98856 
position of yplus max: -11.6111 1.3 2.33007 
yplus prom: 61.2371 
forces 3130.591175 -0.104260 -956.619166 
torque (ref. CG) 0.145963 -1452.549267 0.635983 
----------------------------------------------------- 
torque_test 0.000000 0.000000 1.000000 
----------------------------------------------------- 
step 109, time 0.015565, maxvel 2.000000, total vol 183256, vol(u>maxvel) 183256, cell count 4497143
bounding box (containing cells with vel>maxvel): xmin -37.7456 -17.9463 -0.483139, xmax 116.945 17.9463 32.3328m 
bounding box of vehicle: xmin -12.2 -1.30026 -1.92988e-17, xmax 9.54098e-18 1.30026 3.60025m 
gts area: 163.362 
yplus max: 289.777, yplus min: 5.93553 
position of yplus max: -11.6111 1.3 2.33007 
yplus prom: 61.247 
forces 3129.824306 -0.104778 -956.494042 
torque (ref. CG) 0.146690 -1452.859627 0.639147 
----------------------------------------------------- 
torque_test 0.000000 0.000000 1.000000 
----------------------------------------------------- 
step 110, time 0.015708, maxvel 2.000000, total vol 183256, vol(u>maxvel) 183256, cell count 4497137
bounding box (containing cells with vel>maxvel): xmin -37.7456 -17.9463 -0.483139, xmax 116.945 17.9463 32.3328m 
bounding box of vehicle: xmin -12.2 -1.30026 -1.92988e-17, xmax 9.54098e-18 1.30026 3.60025m 
gts area: 163.362 
yplus max: 289.818, yplus min: 6.00755 
position of yplus max: -11.6111 1.3 2.33007 
yplus prom: 61.2568 
forces 3129.032090 -0.109407 -956.361481 
torque (ref. CG) 0.153170 -1453.160106 0.667385 
----------------------------------------------------- 
torque_test 0.000000 0.000000 1.000000 
----------------------------------------------------- 
step 111, time 0.015851, maxvel 2.000000, total vol 183256, vol(u>maxvel) 183256, cell count 4497121
bounding box (containing cells with vel>maxvel): xmin -37.7456 -17.9463 -0.483139, xmax 116.945 17.9463 32.3328m 
bounding box of vehicle: xmin -12.2 -1.30026 -1.92988e-17, xmax 9.54098e-18 1.30026 3.60025m 
gts area: 163.362 
yplus max: 289.861, yplus min: 6.25442 
position of yplus max: -11.6111 1.3 2.33007 
yplus prom: 61.2664 
forces 3128.213342 -0.109340 -956.215601 
torque (ref. CG) 0.153077 -1453.416490 0.666977 
----------------------------------------------------- 
torque_test 0.000000 0.000000 1.000000 
----------------------------------------------------- 
step 112, time 0.015994, maxvel 2.000000, total vol 183256, vol(u>maxvel) 183256, cell count 4497099
bounding box (containing cells with vel>maxvel): xmin -37.7456 -17.9463 -0.483139, xmax 116.945 17.9463 32.3328m 
bounding box of vehicle: xmin -12.2 -1.30026 -1.92988e-17, xmax 9.54098e-18 1.30026 3.60025m 
gts area: 163.362 
yplus max: 289.905, yplus min: 6.84664 
position of yplus max: -11.6111 1.3 2.33007 
yplus prom: 61.2758 
forces 3127.354161 -0.131387 -956.073331 
torque (ref. CG) 0.183941 -1453.751491 0.801458 
----------------------------------------------------- 
torque_test 0.000000 0.000000 1.000000 
----------------------------------------------------- 
step 113, time 0.016136, maxvel 2.000000, total vol 183256, vol(u>maxvel) 183256, cell count 4497085
bounding box (containing cells with vel>maxvel): xmin -37.7456 -17.9463 -0.483139, xmax 116.945 17.9463 32.3328m 
bounding box of vehicle: xmin -12.2 -1.30026 -1.92988e-17, xmax 9.54098e-18 1.30026 3.60025m 
gts area: 163.362 
yplus max: 289.95, yplus min: 6.88679 
position of yplus max: -11.6111 1.3 2.33007 
yplus prom: 61.2849 
forces 3126.391437 -0.103022 -956.102993 
torque (ref. CG) 0.144230 -1455.280246 0.628432 
----------------------------------------------------- 
torque_test 0.000000 0.000000 1.000000 
----------------------------------------------------- 
step 114, time 0.016279, maxvel 2.000000, total vol 183256, vol(u>maxvel) 183256, cell count 4497072
bounding box (containing cells with vel>maxvel): xmin -37.7456 -17.9463 -0.483139, xmax 116.945 17.9463 32.3328m 
bounding box of vehicle: xmin -12.2 -1.30026 -1.92988e-17, xmax 9.54098e-18 1.30026 3.60025m 
gts area: 163.362 
yplus max: 289.997, yplus min: 6.87477 
position of yplus max: -11.6111 1.3 2.33007 
yplus prom: 61.2939 
forces 3125.459863 -0.140670 -955.926673 
torque (ref. CG) 0.196939 -1455.508894 0.858090 
----------------------------------------------------- 
torque_test 0.000000 0.000000 1.000000 
----------------------------------------------------- 
step 115, time 0.016422, maxvel 2.000000, total vol 183256, vol(u>maxvel) 183256, cell count 4497071
bounding box (containing cells with vel>maxvel): xmin -37.7456 -17.9463 -0.483139, xmax 116.945 17.9463 32.3328m 
bounding box of vehicle: xmin -12.2 -1.30026 -1.92988e-17, xmax 9.54098e-18 1.30026 3.60025m 
gts area: 163.362 
yplus max: 290.044, yplus min: 6.86279 
position of yplus max: -11.6111 1.3 2.33007 
yplus prom: 61.3026 
forces 3124.439910 -0.119343 -955.865371 
torque (ref. CG) 0.167080 -1456.562889 0.727989 
----------------------------------------------------- 
torque_test 0.000000 0.000000 1.000000 
----------------------------------------------------- 
step 116, time 0.016565, maxvel 2.000000, total vol 183256, vol(u>maxvel) 183256, cell count 4497065
bounding box (containing cells with vel>maxvel): xmin -37.7456 -17.9463 -0.483139, xmax 116.945 17.9463 32.3328m 
bounding box of vehicle: xmin -12.2 -1.30026 -1.92988e-17, xmax 9.54098e-18 1.30026 3.60025m 
gts area: 163.362 
yplus max: 290.093, yplus min: 6.85084 
position of yplus max: -11.6111 1.3 2.33007 
yplus prom: 61.3111 
forces 3123.453026 -0.129566 -955.644758 
torque (ref. CG) 0.181392 -1456.598790 0.790352 
----------------------------------------------------- 
torque_test 0.000000 0.000000 1.000000 
----------------------------------------------------- 
step 117, time 0.016708, maxvel 2.000000, total vol 183256, vol(u>maxvel) 183256, cell count 4497065
bounding box (containing cells with vel>maxvel): xmin -37.7456 -17.9463 -0.483139, xmax 116.945 17.9463 32.3328m 
bounding box of vehicle: xmin -12.2 -1.30026 -1.92988e-17, xmax 9.54098e-18 1.30026 3.60025m 
gts area: 163.362 
[...]
----------------------------------------------------- 
step 1615, time 0.230622, maxvel 2.000000, total vol 183256, vol(u>maxvel) 183256, cell count 4497516
bounding box (containing cells with vel>maxvel): xmin -37.7456 -17.9463 -0.483139, xmax 116.945 17.9463 32.3328m 
bounding box of vehicle: xmin -12.2 -1.30026 -1.92988e-17, xmax 9.54098e-18 1.30026 3.60025m 
gts area: 163.362 
yplus max: 287.614, yplus min: 8.73301 
position of yplus max: -11.6111 1.3 2.33007 
yplus prom: 58.1907 
forces 1811.567931 -0.586938 -666.787187 
torque (ref. CG) 0.821713 -1531.206735 3.580320 
----------------------------------------------------- 
torque_test 0.000000 0.000000 1.000000 
----------------------------------------------------- 
step 1616, time 0.230765, maxvel 2.000000, total vol 183256, vol(u>maxvel) 183256, cell count 4497514
bounding box (containing cells with vel>maxvel): xmin -37.7456 -17.9463 -0.483139, xmax 116.945 17.9463 32.3328m 
bounding box of vehicle: xmin -12.2 -1.30026 -1.92988e-17, xmax 9.54098e-18 1.30026 3.60025m 
gts area: 163.362 
yplus max: 287.613, yplus min: 8.73306 
position of yplus max: -11.6111 1.3 2.33007 
yplus prom: 58.1884 
forces 1811.216553 -0.618670 -666.624573 
torque (ref. CG) 0.866138 -1530.706720 3.773886 
----------------------------------------------------- 
torque_test 0.000000 0.000000 1.000000 
----------------------------------------------------- 
step 1617, time 0.230908, maxvel 2.000000, total vol 183256, vol(u>maxvel) 183256, cell count 4497516
bounding box (containing cells with vel>maxvel): xmin -37.7456 -17.9463 -0.483139, xmax 116.945 17.9463 32.3328m 
bounding box of vehicle: xmin -12.2 -1.30026 -1.92988e-17, xmax 9.54098e-18 1.30026 3.60025m 
gts area: 163.362 
yplus max: 287.613, yplus min: 8.7331 
position of yplus max: -11.6111 1.3 2.33007 
yplus prom: 58.1861 
forces 1810.855001 -0.590145 -666.429266 
torque (ref. CG) 0.826202 -1530.021519 3.599881 
----------------------------------------------------- 
torque_test 0.000000 0.000000 1.000000 
----------------------------------------------------- 
step 1618, time 0.231050, maxvel 2.000000, total vol 183256, vol(u>maxvel) 183256, cell count 4497517
bounding box (containing cells with vel>maxvel): xmin -37.7456 -17.9463 -0.483139, xmax 116.945 17.9463 32.3328m 
bounding box of vehicle: xmin -12.2 -1.30026 -1.92988e-17, xmax 9.54098e-18 1.30026 3.60025m 
gts area: 163.362 
yplus max: 287.612, yplus min: 8.73314 
position of yplus max: -11.6111 1.3 2.33007 
yplus prom: 58.1837 
forces 1810.500910 -0.598503 -666.317697 
torque (ref. CG) 0.837904 -1529.836676 3.650869 
----------------------------------------------------- 
torque_test 0.000000 0.000000 1.000000 
----------------------------------------------------- 
step 1619, time 0.231193, maxvel 2.000000, total vol 183256, vol(u>maxvel) 183256, cell count 4497522
bounding box (containing cells with vel>maxvel): xmin -37.7456 -17.9463 -0.483139, xmax 116.945 17.9463 32.3328m 
bounding box of vehicle: xmin -12.2 -1.30026 -1.92988e-17, xmax 9.54098e-18 1.30026 3.60025m 
gts area: 163.362 
yplus max: 287.612, yplus min: 8.73318 
position of yplus max: -11.6111 1.3 2.33007 
yplus prom: 58.1814 
forces 1810.141116 -0.598824 -666.214794 
torque (ref. CG) 0.838353 -1529.712678 3.652826 
----------------------------------------------------- 
torque_test 0.000000 0.000000 1.000000 
----------------------------------------------------- 
step 1620, time 0.231336, maxvel 2.000000, total vol 183256, vol(u>maxvel) 183256, cell count 4497528
bounding box (containing cells with vel>maxvel): xmin -37.7456 -17.9463 -0.483139, xmax 116.945 17.9463 32.3328m 
bounding box of vehicle: xmin -12.2 -1.30026 -1.92988e-17, xmax 9.54098e-18 1.30026 3.60025m 
gts area: 163.362 
yplus max: 287.611, yplus min: 8.73322 
position of yplus max: -11.6111 1.3 2.33007 
yplus prom: 58.1791 
forces 1809.794549 -0.602982 -665.975710 
torque (ref. CG) 0.844175 -1528.739465 3.678191 
----------------------------------------------------- 
torque_test 0.000000 0.000000 1.000000 
----------------------------------------------------- 
step 1621, time 0.231479, maxvel 2.000000, total vol 183256, vol(u>maxvel) 183256, cell count 4497535
bounding box (containing cells with vel>maxvel): xmin -37.7456 -17.9463 -0.483139, xmax 116.945 17.9463 32.3328m 
bounding box of vehicle: xmin -12.2 -1.30026 -1.92988e-17, xmax 9.54098e-18 1.30026 3.60025m 
gts area: 163.362 
yplus max: 287.611, yplus min: 8.73326 
position of yplus max: -11.6111 1.3 2.33007 
yplus prom: 58.1767 
forces 1809.427566 -0.584182 -665.895292 
torque (ref. CG) 0.817855 -1528.762691 3.563510 
----------------------------------------------------- 
torque_test 0.000000 0.000000 1.000000 
----------------------------------------------------- 
step 1622, time 0.231622, maxvel 2.000000, total vol 183256, vol(u>maxvel) 183256, cell count 4497530
bounding box (containing cells with vel>maxvel): xmin -37.7456 -17.9463 -0.483139, xmax 116.945 17.9463 32.3328m 
bounding box of vehicle: xmin -12.2 -1.30026 -1.92988e-17, xmax 9.54098e-18 1.30026 3.60025m 
gts area: 163.362 
yplus max: 287.61, yplus min: 8.73329 
position of yplus max: -11.6111 1.3 2.33007 
yplus prom: 58.1744 
forces 1809.083767 -0.613170 -665.736361 
torque (ref. CG) 0.858438 -1528.274527 3.740336 
----------------------------------------------------- 
torque_test 0.000000 0.000000 1.000000 
----------------------------------------------------- 
step 1623, time 0.231764, maxvel 2.000000, total vol 183256, vol(u>maxvel) 183256, cell count 4497530
bounding box (containing cells with vel>maxvel): xmin -37.7456 -17.9463 -0.483139, xmax 116.945 17.9463 32.3328m 
bounding box of vehicle: xmin -12.2 -1.30026 -1.92988e-17, xmax 9.54098e-18 1.30026 3.60025m 
gts area: 163.362 
yplus max: 287.61, yplus min: 8.73333 
position of yplus max: -11.6111 1.3 2.33007 
yplus prom: 58.1721 
forces 1808.717888 -0.586030 -665.631138 
torque (ref. CG) 0.820442 -1528.144901 3.574785 
----------------------------------------------------- 
torque_test 0.000000 0.000000 1.000000 
----------------------------------------------------- 
step 1624, time 0.231907, maxvel 2.000000, total vol 183256, vol(u>maxvel) 183256, cell count 4497528
bounding box (containing cells with vel>maxvel): xmin -37.7456 -17.9463 -0.483139, xmax 116.945 17.9463 32.3328m 
bounding box of vehicle: xmin -12.2 -1.30026 -1.92988e-17, xmax 9.54098e-18 1.30026 3.60025m 
gts area: 163.362 
yplus max: 287.609, yplus min: 8.73336 
position of yplus max: -11.6111 1.3 2.33007 
yplus prom: 58.1697 
forces 1808.375699 -0.594643 -665.423649 
torque (ref. CG) 0.832500 -1527.358281 3.627319 
----------------------------------------------------- 
torque_test 0.000000 0.000000 1.000000 
----------------------------------------------------- 
step 1625, time 0.232050, maxvel 2.000000, total vol 183256, vol(u>maxvel) 183256, cell count 4497528
bounding box (containing cells with vel>maxvel): xmin -37.7456 -17.9463 -0.483139, xmax 116.945 17.9463 32.3328m 
bounding box of vehicle: xmin -12.2 -1.30026 -1.92988e-17, xmax 9.54098e-18 1.30026 3.60025m 
gts area: 163.362 
yplus max: 287.609, yplus min: 8.73339 
position of yplus max: -11.6111 1.3 2.33007 
yplus prom: 58.1674 
forces 1808.025264 -0.600894 -665.281305 
torque (ref. CG) 0.841252 -1526.980593 3.665453 
----------------------------------------------------- 
torque_test 0.000000 0.000000 1.000000 
----------------------------------------------------- 
step 1626, time 0.232193, maxvel 2.000000, total vol 183256, vol(u>maxvel) 183256, cell count 4497528
bounding box (containing cells with vel>maxvel): xmin -37.7456 -17.9463 -0.483139, xmax 116.945 17.9463 32.3328m 
bounding box of vehicle: xmin -12.2 -1.30026 -1.92988e-17, xmax 9.54098e-18 1.30026 3.60025m 
gts area: 163.362 
yplus max: 287.608, yplus min: 8.73342 
position of yplus max: -11.6111 1.3 2.33007 
yplus prom: 58.1651 
forces 1807.659837 -0.595599 -665.170173 
torque (ref. CG) 0.833838 -1526.814287 3.633153 
----------------------------------------------------- 
torque_test 0.000000 0.000000 1.000000 
----------------------------------------------------- 
step 1627, time 0.232336, maxvel 2.000000, total vol 183256, vol(u>maxvel) 183256, cell count 4497528
bounding box (containing cells with vel>maxvel): xmin -37.7456 -17.9463 -0.483139, xmax 116.945 17.9463 32.3328m 
bounding box of vehicle: xmin -12.2 -1.30026 -1.92988e-17, xmax 9.54098e-18 1.30026 3.60025m 
gts area: 163.362 
yplus max: 287.608, yplus min: 8.73345 
position of yplus max: -11.6111 1.3 2.33007 
yplus prom: 58.1627 
forces 1807.323358 -0.607913 -664.997658 
torque (ref. CG) 0.851079 -1526.233010 3.708272 
----------------------------------------------------- 
torque_test 0.000000 0.000000 1.000000 
----------------------------------------------------- 
step 1628, time 0.232478, maxvel 2.000000, total vol 183256, vol(u>maxvel) 183256, cell count 4497528
bounding box (containing cells with vel>maxvel): xmin -37.7456 -17.9463 -0.483139, xmax 116.945 17.9463 32.3328m 
bounding box of vehicle: xmin -12.2 -1.30026 -1.92988e-17, xmax 9.54098e-18 1.30026 3.60025m 
gts area: 163.362 
yplus max: 287.607, yplus min: 8.73348 
position of yplus max: -11.6111 1.3 2.33007 
yplus prom: 58.1604 
forces 1806.960918 -0.591327 -664.918884 
torque (ref. CG) 0.827858 -1526.259909 3.607097 
----------------------------------------------------- 
torque_test 0.000000 0.000000 1.000000 
----------------------------------------------------- 
step 1629, time 0.232621, maxvel 2.000000, total vol 183256, vol(u>maxvel) 183256, cell count 4497531
bounding box (containing cells with vel>maxvel): xmin -37.7456 -17.9463 -0.483139, xmax 116.945 17.9463 32.3328m 
bounding box of vehicle: xmin -12.2 -1.30026 -1.92988e-17, xmax 9.54098e-18 1.30026 3.60025m 
gts area: 163.362 
yplus max: 287.607, yplus min: 8.7335 
position of yplus max: -11.6111 1.3 2.33007 
yplus prom: 58.1581 
forces 1806.616964 -0.609755 -664.712591 
torque (ref. CG) 0.853656 -1525.483057 3.719503 
----------------------------------------------------- 
torque_test 0.000000 0.000000 1.000000 
----------------------------------------------------- 
step 1630, time 0.232764, maxvel 2.000000, total vol 183256, vol(u>maxvel) 183256, cell count 4497535
bounding box (containing cells with vel>maxvel): xmin -37.7456 -17.9463 -0.483139, xmax 116.945 17.9463 32.3328m 
bounding box of vehicle: xmin -12.2 -1.30026 -1.92988e-17, xmax 9.54098e-18 1.30026 3.60025m 
gts area: 163.362 
yplus max: 287.607, yplus min: 8.73353 
position of yplus max: -11.6111 1.3 2.33007 
yplus prom: 58.1558 
forces 1806.260233 -0.616139 -664.592619 
torque (ref. CG) 0.862594 -1525.250652 3.758447 
----------------------------------------------------- 
torque_test 0.000000 0.000000 1.000000 
----------------------------------------------------- 
step 1631, time 0.232907, maxvel 2.000000, total vol 183256, vol(u>maxvel) 183256, cell count 4497543
bounding box (containing cells with vel>maxvel): xmin -37.7456 -17.9463 -0.483139, xmax 116.945 17.9463 32.3328m 
bounding box of vehicle: xmin -12.2 -1.30026 -1.92988e-17, xmax 9.54098e-18 1.30026 3.60025m 
gts area: 163.362 
yplus max: 287.606, yplus min: 8.73355 
position of yplus max: -11.6111 1.3 2.33007 
yplus prom: 58.1534 
forces 1805.922320 -0.592038 -664.415134 
torque (ref. CG) 0.828853 -1524.641073 3.611431 
----------------------------------------------------- 
torque_test 0.000000 0.000000 1.000000 
----------------------------------------------------- 
step 1632, time 0.233050, maxvel 2.000000, total vol 183256, vol(u>maxvel) 183256, cell count 4497543
bounding box (containing cells with vel>maxvel): xmin -37.7456 -17.9463 -0.483139, xmax 116.945 17.9463 32.3328m 
bounding box of vehicle: xmin -12.2 -1.30026 -1.92988e-17, xmax 9.54098e-18 1.30026 3.60025m 
gts area: 163.362 
yplus max: 287.606, yplus min: 8.73357 
position of yplus max: -11.6111 1.3 2.33007 
yplus prom: 58.1511 
forces 1805.569746 -0.610873 -664.281836 
torque (ref. CG) 0.855222 -1524.321555 3.726323 
----------------------------------------------------- 
torque_test 0.000000 0.000000 1.000000 
----------------------------------------------------- 
step 1633, time 0.233192, maxvel 2.000000, total vol 183256, vol(u>maxvel) 183256, cell count 4497541
bounding box (containing cells with vel>maxvel): xmin -37.7456 -17.9463 -0.483139, xmax 116.945 17.9463 32.3328m 
bounding box of vehicle: xmin -12.2 -1.30026 -1.92988e-17, xmax 9.54098e-18 1.30026 3.60025m 
gts area: 163.362 
yplus max: 287.605, yplus min: 8.7336 
position of yplus max: -11.6111 1.3 2.33007 
yplus prom: 58.1488 
forces 1805.225926 -0.614909 -664.116708 
torque (ref. CG) 0.860873 -1523.795625 3.750944 
----------------------------------------------------- 
torque_test 0.000000 0.000000 1.000000 
----------------------------------------------------- 
step 1634, time 0.233335, maxvel 2.000000, total vol 183256, vol(u>maxvel) 183256, cell count 4497541
bounding box (containing cells with vel>maxvel): xmin -37.7456 -17.9463 -0.483139, xmax 116.945 17.9463 32.3328m 
bounding box of vehicle: xmin -12.2 -1.30026 -1.92988e-17, xmax 9.54098e-18 1.30026 3.60025m 
gts area: 163.362 
yplus max: 287.605, yplus min: 8.73361 
position of yplus max: -11.6111 1.3 2.33007 
yplus prom: 58.1464 
forces 1804.869507 -0.598074 -664.041667 
torque (ref. CG) 0.837303 -1523.836861 3.648250 
----------------------------------------------------- 
torque_test 0.000000 0.000000 1.000000 
----------------------------------------------------- 
step 1635, time 0.233478, maxvel 2.000000, total vol 183256, vol(u>maxvel) 183256, cell count 4497539
bounding box (containing cells with vel>maxvel): xmin -37.7456 -17.9463 -0.483139, xmax 116.945 17.9463 32.3328m 
bounding box of vehicle: xmin -12.2 -1.30026 -1.92988e-17, xmax 9.54098e-18 1.30026 3.60025m 
gts area: 163.362 
yplus max: 287.604, yplus min: 8.73363 
position of yplus max: -11.6111 1.3 2.33007 
yplus prom: 58.1441 
forces 1804.526635 -0.617911 -663.870145 
torque (ref. CG) 0.865076 -1523.270594 3.769258 
----------------------------------------------------- 
torque_test 0.000000 0.000000 1.000000 
----------------------------------------------------- 
step 1636, time 0.233621, maxvel 2.000000, total vol 183256, vol(u>maxvel) 183256, cell count 4497537
bounding box (containing cells with vel>maxvel): xmin -37.7456 -17.9463 -0.483139, xmax 116.945 17.9463 32.3328m 
bounding box of vehicle: xmin -12.2 -1.30026 -1.92988e-17, xmax 9.54098e-18 1.30026 3.60025m 
gts area: 163.362 
yplus max: 287.604, yplus min: 8.73365 
position of yplus max: -11.6111 1.3 2.33007 
yplus prom: 58.1418 
forces 1804.186546 -0.604450 -663.701536 
torque (ref. CG) 0.846230 -1522.718205 3.687144 
----------------------------------------------------- 
torque_test 0.000000 0.000000 1.000000 
----------------------------------------------------- 
step 1637, time 0.233764, maxvel 2.000000, total vol 183256, vol(u>maxvel) 183256, cell count 4497534
bounding box (containing cells with vel>maxvel): xmin -37.7456 -17.9463 -0.483139, xmax 116.945 17.9463 32.3328m 
bounding box of vehicle: xmin -12.2 -1.30026 -1.92988e-17, xmax 9.54098e-18 1.30026 3.60025m 
gts area: 163.362 
yplus max: 287.603, yplus min: 8.73366 
position of yplus max: -11.6111 1.3 2.33007 
yplus prom: 58.1395 
forces 1803.844770 -0.616814 -663.569631 
torque (ref. CG) 0.863540 -1522.392072 3.762567 
----------------------------------------------------- 
torque_test 0.000000 0.000000 1.000000 
----------------------------------------------------- 
step 1638, time 0.233906, maxvel 2.000000, total vol 183256, vol(u>maxvel) 183256, cell count 4497534
bounding box (containing cells with vel>maxvel): xmin -37.7456 -17.9463 -0.483139, xmax 116.945 17.9463 32.3328m 
bounding box of vehicle: xmin -12.2 -1.30026 -1.92988e-17, xmax 9.54098e-18 1.30026 3.60025m 
gts area: 163.362 
yplus max: 287.603, yplus min: 8.73368 
position of yplus max: -11.6111 1.3 2.33007 
yplus prom: 58.1372 
forces 1803.496476 -0.613115 -663.376268 
torque (ref. CG) 0.858361 -1521.700167 3.740001 
----------------------------------------------------- 
torque_test 0.000000 0.000000 1.000000 
----------------------------------------------------- 
step 1639, time 0.234049, maxvel 2.000000, total vol 183256, vol(u>maxvel) 183256, cell count 4497536
bounding box (containing cells with vel>maxvel): xmin -37.7456 -17.9463 -0.483139, xmax 116.945 17.9463 32.3328m 
bounding box of vehicle: xmin -12.2 -1.30026 -1.92988e-17, xmax 9.54098e-18 1.30026 3.60025m 
gts area: 163.362 
yplus max: 287.602, yplus min: 8.73369 
position of yplus max: -11.6111 1.3 2.33007 
yplus prom: 58.1348 
forces 1803.146510 -0.616348 -663.296397 
torque (ref. CG) 0.862888 -1521.702907 3.759725 
----------------------------------------------------- 
torque_test 0.000000 0.000000 1.000000 
----------------------------------------------------- 
step 1640, time 0.234192, maxvel 2.000000, total vol 183256, vol(u>maxvel) 183256, cell count 4497540
bounding box (containing cells with vel>maxvel): xmin -37.7456 -17.9463 -0.483139, xmax 116.945 17.9463 32.3328m 
bounding box of vehicle: xmin -12.2 -1.30026 -1.92988e-17, xmax 9.54098e-18 1.30026 3.60025m 
gts area: 163.362 
yplus max: 287.602, yplus min: 8.7337 
position of yplus max: -11.6111 1.3 2.33007 
yplus prom: 58.1325 
forces 1802.805664 -0.629606 -663.170874 
torque (ref. CG) 0.881449 -1521.414400 3.840597 
----------------------------------------------------- 
torque_test 0.000000 0.000000 1.000000 
----------------------------------------------------- 
step 1641, time 0.234335, maxvel 2.000000, total vol 183256, vol(u>maxvel) 183256, cell count 4497538
bounding box (containing cells with vel>maxvel): xmin -37.7456 -17.9463 -0.483139, xmax 116.945 17.9463 32.3328m 
bounding box of vehicle: xmin -12.2 -1.30026 -1.92988e-17, xmax 9.54098e-18 1.30026 3.60025m 
gts area: 163.362 
yplus max: 287.601, yplus min: 8.73371 
position of yplus max: -11.6111 1.3 2.33007 
yplus prom: 58.1302 
forces 1802.468571 -0.619177 -662.984452 
torque (ref. CG) 0.866847 -1520.749156 3.776977 
----------------------------------------------------- 
torque_test 0.000000 0.000000 1.000000 
----------------------------------------------------- 
step 1642, time 0.234478, maxvel 2.000000, total vol 183256, vol(u>maxvel) 183256, cell count 4497539
bounding box (containing cells with vel>maxvel): xmin -37.7456 -17.9463 -0.483139, xmax 116.945 17.9463 32.3328m 
bounding box of vehicle: xmin -12.2 -1.30026 -1.92988e-17, xmax 9.54098e-18 1.30026 3.60025m 
gts area: 163.362 
yplus max: 287.601, yplus min: 8.73372 
position of yplus max: -11.6111 1.3 2.33007 
yplus prom: 58.1279 
forces 1802.125284 -0.624690 -662.853336 
torque (ref. CG) 0.874565 -1520.429954 3.810606 
----------------------------------------------------- 
torque_test 0.000000 0.000000 1.000000 
----------------------------------------------------- 
step 1643, time 0.234620, maxvel 2.000000, total vol 183256, vol(u>maxvel) 183256, cell count 4497543
bounding box (containing cells with vel>maxvel): xmin -37.7456 -17.9463 -0.483139, xmax 116.945 17.9463 32.3328m 
bounding box of vehicle: xmin -12.2 -1.30026 -1.92988e-17, xmax 9.54098e-18 1.30026 3.60025m 
gts area: 163.362 
yplus max: 287.601, yplus min: 8.73373 
position of yplus max: -11.6111 1.3 2.33007 
yplus prom: 58.1256 
forces 1801.790415 -0.621559 -662.703838 
torque (ref. CG) 0.870183 -1519.986832 3.791511 
----------------------------------------------------- 
torque_test 0.000000 0.000000 1.000000 
----------------------------------------------------- 
srun: Job step aborted: Waiting up to 32 seconds for job step to finish.
srun: got SIGCONT
slurmstepd: error: *** JOB 138434 ON compute-0-1 CANCELLED AT 2022-08-08T14:34:05 ***
srun: forcing job termination
make: *** [run] Terminated
slurmstepd: error: *** STEP 138434.0 ON compute-0-1 CANCELLED AT 2022-08-08T14:34:05 ***
