Start run at mar ago 23 18:37:07 ART 2022
PYTHON_CS_XFLAGS=' -O0 -g3 -ggdb3 -I/usr/include/jsoncpp ' /share/storage/pub/mstorti/saturne-vof/bin/code_saturne  run --param setup.xml

The following have been reloaded with a version change:
  1) llvm/6.0.0 => llvm/3.4.2


The following have been reloaded with a version change:
  1) llvm/3.4.2 => llvm/6.0.0


                      Code_Saturne
                      ************

 Version:   6.1-alpha
 Path:      /share/storage/pub/mstorti/saturne-vof

 Result directory:
   /share/storage/finzeo/GTS_Tunay_2/RESU/20220823-1837


 ****************************************
  Compiling user subroutines and linking
 ****************************************


 ****************************
  Preparing calculation data
 ****************************

 Parallel Code_Saturne on 140 processes.


 ***************************
  Preprocessing calculation
 ***************************


 **********************
  Starting calculation
 **********************

Warning: Process to core binding is enabled and OMP_NUM_THREADS is set to non-zero (1) value
If your program has OpenMP sections, this can cause over-subscription of cores and consequently poor performance
To avoid this, please re-run your application after setting MV2_ENABLE_AFFINITY=0
Use MV2_USE_THREAD_WARNING=0 to suppress this message
step 1, time 0.000500, maxvel 30.000000, total vol 183256, vol(u>maxvel) 7.17121, cell count 1332386
bounding box (containing cells with vel>maxvel): xmin -12.2931 -1.85118 -0.469209, xmax 0.201499 1.85116 4.08496m 
bounding box of vehicle: xmin -12.2 -1.30017 -1.63055e-10, xmax 3.80148e-18 1.30017 3.6m 
gts area: 163.395 
yplus max: 93.0436, yplus min: 0 
position of yplus max: -11.9529 1.2683 0.00592565 
yplus prom: 6.69529 
forces: 761088745.552236 517702.870639 -89708162.182396 
Drag coefficient: 212382.199754 
torque (ref. CG): -724784.018894 (roll) 518304454.460544 (pitch) -3157987.510896 (yaw) 
----------------------------------------------------- 
step 2, time 0.001000, maxvel 30.000000, total vol 183256, vol(u>maxvel) 7.4344, cell count 1560642
bounding box (containing cells with vel>maxvel): xmin -12.2931 -1.8514 -0.485747, xmax 0.247787 1.85135 4.08496m 
bounding box of vehicle: xmin -12.2 -1.30017 -1.63055e-10, xmax 3.80148e-18 1.30017 3.6m 
gts area: 163.395 
yplus max: 96.1556, yplus min: 0.182635 
position of yplus max: -11.9529 1.2683 0.00592565 
yplus prom: 3.04494 
forces: 1165754.255976 101.992321 -143038.789125 
Drag coefficient: 325.304315 
torque (ref. CG): -142.789250 (roll) 759519.344703 (pitch) -622.153159 (yaw) 
----------------------------------------------------- 
step 3, time 0.001500, maxvel 30.000000, total vol 183256, vol(u>maxvel) 7.44296, cell count 1726400
bounding box (containing cells with vel>maxvel): xmin -12.2928 -1.85138 -0.485747, xmax 0.248048 1.85134 4.08496m 
bounding box of vehicle: xmin -12.2 -1.30017 -1.63055e-10, xmax 3.80148e-18 1.30017 3.6m 
gts area: 163.395 
yplus max: 100.477, yplus min: 0.0723226 
position of yplus max: -11.9604 1.29361 2.16315 
yplus prom: 3.04132 
forces: 21643.675788 0.242194 -3079.660164 
Drag coefficient: 6.039679 
torque (ref. CG): -0.339072 (roll) 11515.219104 (pitch) -1.477385 (yaw) 
----------------------------------------------------- 
step 4, time 0.002000, maxvel 30.000000, total vol 183256, vol(u>maxvel) 7.44695, cell count 1841919
bounding box (containing cells with vel>maxvel): xmin -12.2927 -1.85135 -0.485747, xmax 0.248125 1.85131 4.08496m 
bounding box of vehicle: xmin -12.2 -1.30017 -1.63055e-10, xmax 3.80148e-18 1.30017 3.6m 
gts area: 163.395 
yplus max: 101.362, yplus min: 0.0560944 
position of yplus max: -11.9529 1.2683 0.00592565 
yplus prom: 2.92971 
forces: 2245.393919 -1.150235 -800.670862 
Drag coefficient: 0.626578 
torque (ref. CG): 1.610329 (roll) -1740.540769 (pitch) 7.016433 (yaw) 
----------------------------------------------------- 
step 5, time 0.002500, maxvel 30.000000, total vol 183256, vol(u>maxvel) 7.44184, cell count 1810403
bounding box (containing cells with vel>maxvel): xmin -12.2927 -1.85133 -0.485747, xmax 0.248187 1.8513 4.08496m 
bounding box of vehicle: xmin -12.2 -1.30017 -1.63055e-10, xmax 3.80148e-18 1.30017 3.6m 
gts area: 163.395 
yplus max: 102.421, yplus min: 0.00961598 
position of yplus max: -11.9529 1.2683 0.00592565 
yplus prom: 2.75528 
forces: 2104.417944 -0.914657 -874.521128 
Drag coefficient: 0.587239 
torque (ref. CG): 1.280519 (roll) -2388.393762 (pitch) 5.579406 (yaw) 
----------------------------------------------------- 
step 6, time 0.003000, maxvel 30.000000, total vol 183256, vol(u>maxvel) 7.43397, cell count 1785737
bounding box (containing cells with vel>maxvel): xmin -12.2927 -1.85128 -0.485747, xmax 0.264012 1.85125 4.08496m 
bounding box of vehicle: xmin -12.2 -1.30017 -1.63055e-10, xmax 3.80148e-18 1.30017 3.6m 
gts area: 163.395 
yplus max: 103.389, yplus min: 0.0600543 
position of yplus max: -11.9529 1.2683 0.00592565 
yplus prom: 2.66293 
forces: 2270.914665 -0.704551 -878.905549 
Drag coefficient: 0.633700 
torque (ref. CG): 0.986372 (roll) -2182.043318 (pitch) 4.297762 (yaw) 
----------------------------------------------------- 
step 7, time 0.003500, maxvel 30.000000, total vol 183256, vol(u>maxvel) 7.415, cell count 1767281
bounding box (containing cells with vel>maxvel): xmin -12.2927 -1.85124 -0.485747, xmax 0.264121 1.85121 4.08496m 
bounding box of vehicle: xmin -12.2 -1.30017 -1.63055e-10, xmax 3.80148e-18 1.30017 3.6m 
gts area: 163.395 
yplus max: 104.275, yplus min: 0.0144658 
position of yplus max: -11.9529 1.2683 0.00592565 
yplus prom: 2.60719 
forces: 2388.846672 -0.569970 -876.114660 
Drag coefficient: 0.666609 
torque (ref. CG): 0.797958 (roll) -1999.914085 (pitch) 3.476815 (yaw) 
----------------------------------------------------- 
step 8, time 0.004000, maxvel 30.000000, total vol 183256, vol(u>maxvel) 7.40359, cell count 1740970
bounding box (containing cells with vel>maxvel): xmin -12.2923 -1.85123 -0.485747, xmax 0.264206 1.8512 4.08496m 
bounding box of vehicle: xmin -12.2 -1.30017 -1.63055e-10, xmax 3.80148e-18 1.30017 3.6m 
gts area: 163.395 
yplus max: 105.416, yplus min: 0.052573 
position of yplus max: -12.0539 1.27856 1.99182 
yplus prom: 2.57528 
forces: 2490.153496 -0.458142 -872.332917 
Drag coefficient: 0.694879 
torque (ref. CG): 0.641399 (roll) -1835.015901 (pitch) 2.794667 (yaw) 
----------------------------------------------------- 
step 9, time 0.004500, maxvel 30.000000, total vol 183256, vol(u>maxvel) 7.38915, cell count 1731064
bounding box (containing cells with vel>maxvel): xmin -12.2923 -1.85118 -0.485747, xmax 0.264301 1.85116 4.08496m 
bounding box of vehicle: xmin -12.2 -1.30017 -1.63055e-10, xmax 3.80148e-18 1.30017 3.6m 
gts area: 163.395 
yplus max: 106.672, yplus min: 0.0492644 
position of yplus max: -12.0539 1.27856 1.99182 
yplus prom: 2.56053 
forces: 2576.414669 -0.407995 -869.014450 
Drag coefficient: 0.718950 
torque (ref. CG): 0.571193 (roll) -1694.007610 (pitch) 2.488770 (yaw) 
----------------------------------------------------- 
step 10, time 0.005000, maxvel 30.000000, total vol 183256, vol(u>maxvel) 7.37275, cell count 1738716
bounding box (containing cells with vel>maxvel): xmin -12.2923 -1.85117 -0.485747, xmax 0.264308 1.85115 4.08496m 
bounding box of vehicle: xmin -12.2 -1.30017 -1.63055e-10, xmax 3.80148e-18 1.30017 3.6m 
gts area: 163.395 
yplus max: 107.897, yplus min: 0.0472248 
position of yplus max: -12.0539 1.27856 1.99182 
yplus prom: 2.55741 
forces: 2647.658865 -0.398870 -867.689532 
Drag coefficient: 0.738831 
torque (ref. CG): 0.558418 (roll) -1586.183735 (pitch) 2.433107 (yaw) 
----------------------------------------------------- 
step 11, time 0.005500, maxvel 30.000000, total vol 183256, vol(u>maxvel) 7.36256, cell count 1747993
bounding box (containing cells with vel>maxvel): xmin -12.2923 -1.85111 -0.485747, xmax 0.264308 1.8511 4.08495m 
bounding box of vehicle: xmin -12.2 -1.30017 -1.63055e-10, xmax 3.80148e-18 1.30017 3.6m 
gts area: 163.395 
yplus max: 109.073, yplus min: 0.0463874 
position of yplus max: -12.0539 1.27856 1.99182 
yplus prom: 2.56226 
forces: 2710.221130 -0.308349 -866.820283 
Drag coefficient: 0.756289 
torque (ref. CG): 0.431689 (roll) -1493.294143 (pitch) 1.880931 (yaw) 
----------------------------------------------------- 
step 12, time 0.006000, maxvel 30.000000, total vol 183256, vol(u>maxvel) 7.36051, cell count 1753714
bounding box (containing cells with vel>maxvel): xmin -12.2622 -1.85111 -0.485747, xmax 0.264936 1.8511 4.08495m 
bounding box of vehicle: xmin -12.2 -1.30017 -1.63055e-10, xmax 3.80148e-18 1.30017 3.6m 
gts area: 163.395 
yplus max: 110.179, yplus min: 0.0449115 
position of yplus max: -12.0539 1.27856 1.99182 
yplus prom: 2.57237 
forces: 2764.285167 -0.291012 -866.435450 
Drag coefficient: 0.771375 
torque (ref. CG): 0.407417 (roll) -1415.257014 (pitch) 1.775173 (yaw) 
----------------------------------------------------- 
step 13, time 0.006500, maxvel 30.000000, total vol 183256, vol(u>maxvel) 7.36861, cell count 1761898
bounding box (containing cells with vel>maxvel): xmin -12.2622 -1.85106 -0.485747, xmax 0.310507 1.85103 4.08495m 
bounding box of vehicle: xmin -12.2 -1.30017 -1.63055e-10, xmax 3.80148e-18 1.30017 3.6m 
gts area: 163.395 
yplus max: 111.202, yplus min: 0.0412395 
position of yplus max: -12.0539 1.27856 1.99182 
yplus prom: 2.58578 
forces: 2811.885668 -0.254946 -866.348246 
Drag coefficient: 0.784658 
torque (ref. CG): 0.356924 (roll) -1348.084364 (pitch) 1.555170 (yaw) 
----------------------------------------------------- 
step 14, time 0.007000, maxvel 30.000000, total vol 183256, vol(u>maxvel) 7.37883, cell count 1768233
bounding box (containing cells with vel>maxvel): xmin -12.2622 -1.85099 -0.485747, xmax 0.310643 1.85097 4.08495m 
bounding box of vehicle: xmin -12.2 -1.30017 -1.63055e-10, xmax 3.80148e-18 1.30017 3.6m 
gts area: 163.395 
yplus max: 112.134, yplus min: 0.0391714 
position of yplus max: -12.0539 1.27856 1.99182 
yplus prom: 2.60137 
forces: 2852.319670 -0.242795 -866.654451 
Drag coefficient: 0.795941 
torque (ref. CG): 0.339914 (roll) -1293.344610 (pitch) 1.481052 (yaw) 
----------------------------------------------------- 
step 15, time 0.007500, maxvel 30.000000, total vol 183256, vol(u>maxvel) 7.37393, cell count 1774089
bounding box (containing cells with vel>maxvel): xmin -12.2622 -1.85099 -0.485747, xmax 0.31068 1.85097 4.08495m 
bounding box of vehicle: xmin -12.2 -1.30017 -1.63055e-10, xmax 3.80148e-18 1.30017 3.6m 
gts area: 163.395 
yplus max: 112.972, yplus min: 0.0390119 
position of yplus max: -12.0539 1.27856 1.99182 
yplus prom: 2.61821 
forces: 2886.668138 -0.216109 -867.681873 
Drag coefficient: 0.805526 
torque (ref. CG): 0.302553 (roll) -1251.524032 (pitch) 1.318267 (yaw) 
----------------------------------------------------- 
step 16, time 0.008000, maxvel 30.000000, total vol 183256, vol(u>maxvel) 7.36665, cell count 1777270
bounding box (containing cells with vel>maxvel): xmin -12.2622 -1.85092 -0.485747, xmax 0.310723 1.8509 4.08481m 
bounding box of vehicle: xmin -12.2 -1.30017 -1.63055e-10, xmax 3.80148e-18 1.30017 3.6m 
gts area: 163.395 
yplus max: 113.716, yplus min: 0.0321038 
position of yplus max: -12.0539 1.27856 1.99182 
yplus prom: 2.63563 
forces: 2915.418228 -0.207449 -868.457120 
Drag coefficient: 0.813549 
torque (ref. CG): 0.290429 (roll) -1216.002910 (pitch) 1.265439 (yaw) 
----------------------------------------------------- 
step 17, time 0.008500, maxvel 30.000000, total vol 183256, vol(u>maxvel) 7.35705, cell count 1775817
bounding box (containing cells with vel>maxvel): xmin -12.2622 -1.85085 -0.485747, xmax 0.310779 1.85083 4.08481m 
bounding box of vehicle: xmin -12.2 -1.30017 -1.63055e-10, xmax 3.80148e-18 1.30017 3.6m 
gts area: 163.395 
yplus max: 114.371, yplus min: 0.033965 
position of yplus max: -12.0539 1.27856 1.99182 
yplus prom: 2.65306 
forces: 2939.709358 -0.201897 -869.368602 
Drag coefficient: 0.820327 
torque (ref. CG): 0.282655 (roll) -1187.555371 (pitch) 1.231570 (yaw) 
----------------------------------------------------- 
step 18, time 0.009000, maxvel 30.000000, total vol 183256, vol(u>maxvel) 7.35318, cell count 1773898
bounding box (containing cells with vel>maxvel): xmin -12.2622 -1.85085 -0.485747, xmax 0.310809 1.85083 4.0227m 
bounding box of vehicle: xmin -12.2 -1.30017 -1.63055e-10, xmax 3.80148e-18 1.30017 3.6m 
gts area: 163.395 
yplus max: 114.94, yplus min: 0.0332607 
position of yplus max: -12.0539 1.27856 1.99182 
yplus prom: 2.67001 
forces: 2961.006280 -0.192842 -870.398665 
Drag coefficient: 0.826270 
torque (ref. CG): 0.269978 (roll) -1164.023061 (pitch) 1.176335 (yaw) 
----------------------------------------------------- 
step 19, time 0.009500, maxvel 30.000000, total vol 183256, vol(u>maxvel) 7.34722, cell count 1768465
bounding box (containing cells with vel>maxvel): xmin -12.2622 -1.85078 -0.485747, xmax 0.310867 1.85075 4.0227m 
bounding box of vehicle: xmin -12.2 -1.30017 -1.63055e-10, xmax 3.80148e-18 1.30017 3.6m 
gts area: 163.395 
yplus max: 115.429, yplus min: 0.0335308 
position of yplus max: -12.0539 1.27856 1.99182 
yplus prom: 2.68607 
forces: 2979.918277 -0.177238 -871.117194 
Drag coefficient: 0.831548 
torque (ref. CG): 0.248133 (roll) -1141.929297 (pitch) 1.081153 (yaw) 
----------------------------------------------------- 
step 20, time 0.010000, maxvel 30.000000, total vol 183256, vol(u>maxvel) 7.3389, cell count 1765690
bounding box (containing cells with vel>maxvel): xmin -12.2622 -1.85062 -0.485747, xmax 0.310938 1.85059 4.0227m 
bounding box of vehicle: xmin -12.2 -1.30017 -1.63055e-10, xmax 3.80148e-18 1.30017 3.6m 
gts area: 163.395 
yplus max: 115.844, yplus min: 0.0289395 
position of yplus max: -12.0539 1.27856 1.99182 
yplus prom: 2.70098 
forces: 2996.055779 -0.173377 -871.358752 
Drag coefficient: 0.836051 
torque (ref. CG): 0.242728 (roll) -1120.810296 (pitch) 1.057600 (yaw) 
----------------------------------------------------- 
step 21, time 0.010500, maxvel 30.000000, total vol 183256, vol(u>maxvel) 7.33317, cell count 1766458
bounding box (containing cells with vel>maxvel): xmin -12.2622 -1.78928 -0.498469, xmax 0.31102 1.78921 4.0227m 
bounding box of vehicle: xmin -12.2 -1.30017 -1.63055e-10, xmax 3.80148e-18 1.30017 3.6m 
gts area: 163.395 
yplus max: 116.193, yplus min: 0.0293921 
position of yplus max: -12.0539 1.27856 1.99182 
yplus prom: 2.71459 
forces: 3009.458320 -0.165386 -871.372400 
Drag coefficient: 0.839791 
torque (ref. CG): 0.231541 (roll) -1102.129991 (pitch) 1.008856 (yaw) 
----------------------------------------------------- 
step 22, time 0.011000, maxvel 30.000000, total vol 183256, vol(u>maxvel) 7.33349, cell count 1768176
bounding box (containing cells with vel>maxvel): xmin -12.2622 -1.78928 -0.498469, xmax 0.311061 1.78921 4.0227m 
bounding box of vehicle: xmin -12.2 -1.30017 -1.63055e-10, xmax 3.80148e-18 1.30017 3.6m 
gts area: 163.395 
yplus max: 116.483, yplus min: 0.0274484 
position of yplus max: -12.0539 1.27856 1.99182 
yplus prom: 2.72687 
forces: 3019.886637 -0.163641 -871.392023 
Drag coefficient: 0.842701 
torque (ref. CG): 0.229098 (roll) -1087.650048 (pitch) 0.998213 (yaw) 
----------------------------------------------------- 
step 23, time 0.011500, maxvel 30.000000, total vol 183256, vol(u>maxvel) 7.33327, cell count 1768856
bounding box (containing cells with vel>maxvel): xmin -12.2622 -1.78924 -0.498469, xmax 0.311077 1.78917 4.0227m 
bounding box of vehicle: xmin -12.2 -1.30017 -1.63055e-10, xmax 3.80148e-18 1.30017 3.6m 
gts area: 163.395 
yplus max: 116.722, yplus min: 0.0243786 
position of yplus max: -12.0539 1.27856 1.99182 
yplus prom: 2.73787 
forces: 3027.989722 -0.159554 -871.451541 
Drag coefficient: 0.844962 
torque (ref. CG): 0.223376 (roll) -1076.668792 (pitch) 0.973279 (yaw) 
----------------------------------------------------- 
step 24, time 0.012000, maxvel 30.000000, total vol 183256, vol(u>maxvel) 7.33029, cell count 1769319
bounding box (containing cells with vel>maxvel): xmin -12.2622 -1.78924 -0.498469, xmax 0.311077 1.78917 4.0227m 
bounding box of vehicle: xmin -12.2 -1.30017 -1.63055e-10, xmax 3.80148e-18 1.30017 3.6m 
gts area: 163.395 
yplus max: 116.918, yplus min: 0.0264939 
position of yplus max: -12.0539 1.27856 1.99182 
yplus prom: 2.74771 
forces: 3034.170095 -0.151882 -871.518327 
Drag coefficient: 0.846687 
torque (ref. CG): 0.212635 (roll) -1068.423662 (pitch) 0.926480 (yaw) 
----------------------------------------------------- 
step 25, time 0.012500, maxvel 30.000000, total vol 183256, vol(u>maxvel) 7.3365, cell count 1769417
bounding box (containing cells with vel>maxvel): xmin -12.2622 -1.78924 -0.498469, xmax 0.312637 1.78917 4.0227m 
bounding box of vehicle: xmin -12.2 -1.30017 -1.63055e-10, xmax 3.80148e-18 1.30017 3.6m 
gts area: 163.395 
yplus max: 117.077, yplus min: 0.0158291 
position of yplus max: -12.0539 1.27856 1.99182 
yplus prom: 2.75651 
forces: 3038.723472 -0.146902 -871.385773 
Drag coefficient: 0.847957 
torque (ref. CG): 0.205663 (roll) -1061.240357 (pitch) 0.896105 (yaw) 
----------------------------------------------------- 
step 26, time 0.013000, maxvel 30.000000, total vol 183256, vol(u>maxvel) 7.3368, cell count 1768081
bounding box (containing cells with vel>maxvel): xmin -12.2622 -1.78924 -0.498469, xmax 0.312752 1.78917 4.0227m 
bounding box of vehicle: xmin -12.2 -1.30017 -1.63055e-10, xmax 3.80148e-18 1.30017 3.6m 
gts area: 163.395 
yplus max: 117.206, yplus min: 0.0244685 
position of yplus max: -12.0539 1.27856 1.99182 
yplus prom: 2.76438 
forces: 3042.112973 -0.145074 -871.245492 
Drag coefficient: 0.848903 
torque (ref. CG): 0.203104 (roll) -1055.639342 (pitch) 0.884953 (yaw) 
----------------------------------------------------- 
step 27, time 0.013500, maxvel 30.000000, total vol 183256, vol(u>maxvel) 7.33875, cell count 1767308
bounding box (containing cells with vel>maxvel): xmin -12.2622 -1.78924 -0.498469, xmax 0.373121 1.78917 4.0227m 
bounding box of vehicle: xmin -12.2 -1.30017 -1.63055e-10, xmax 3.80148e-18 1.30017 3.6m 
gts area: 163.395 
yplus max: 117.311, yplus min: 0.0167097 
position of yplus max: -12.0539 1.27856 1.99182 
yplus prom: 2.77143 
forces: 3044.453551 -0.134192 -871.145473 
Drag coefficient: 0.849556 
torque (ref. CG): 0.187869 (roll) -1051.752415 (pitch) 0.818572 (yaw) 
----------------------------------------------------- 
step 28, time 0.014000, maxvel 30.000000, total vol 183256, vol(u>maxvel) 7.33762, cell count 1768136
bounding box (containing cells with vel>maxvel): xmin -12.2622 -1.78919 -0.498469, xmax 0.373198 1.78914 4.0227m 
bounding box of vehicle: xmin -12.2 -1.30017 -1.63055e-10, xmax 3.80148e-18 1.30017 3.6m 
gts area: 163.395 
yplus max: 117.395, yplus min: 0.0197012 
position of yplus max: -12.0539 1.27856 1.99182 
yplus prom: 2.77778 
forces: 3045.980628 -0.138327 -871.049823 
Drag coefficient: 0.849982 
torque (ref. CG): 0.193658 (roll) -1049.031041 (pitch) 0.843795 (yaw) 
----------------------------------------------------- 
step 29, time 0.014500, maxvel 30.000000, total vol 183256, vol(u>maxvel) 7.33539, cell count 1767391
bounding box (containing cells with vel>maxvel): xmin -12.2622 -1.78919 -0.498469, xmax 0.373244 1.78914 4.0227m 
bounding box of vehicle: xmin -12.2 -1.30017 -1.63055e-10, xmax 3.80148e-18 1.30017 3.6m 
gts area: 163.395 
yplus max: 117.464, yplus min: 0.0166129 
position of yplus max: -12.0539 1.27856 1.99182 
yplus prom: 2.78351 
forces: 3046.894612 -0.136196 -871.120215 
Drag coefficient: 0.850237 
torque (ref. CG): 0.190675 (roll) -1048.180853 (pitch) 0.830796 (yaw) 
----------------------------------------------------- 
step 30, time 0.015000, maxvel 30.000000, total vol 183256, vol(u>maxvel) 7.34167, cell count 1767318
bounding box (containing cells with vel>maxvel): xmin -12.2622 -1.78919 -0.498469, xmax 0.373275 1.78914 4.0227m 
bounding box of vehicle: xmin -12.2 -1.30017 -1.63055e-10, xmax 3.80148e-18 1.30017 3.6m 
gts area: 163.395 
yplus max: 117.519, yplus min: 0.0112568 
position of yplus max: -12.0539 1.27856 1.99182 
yplus prom: 2.78867 
forces: 3047.115640 -0.107811 -871.227217 
Drag coefficient: 0.850299 
torque (ref. CG): 0.150935 (roll) -1048.524127 (pitch) 0.657646 (yaw) 
----------------------------------------------------- 
step 31, time 0.015500, maxvel 30.000000, total vol 183256, vol(u>maxvel) 7.33697, cell count 1766131
bounding box (containing cells with vel>maxvel): xmin -12.2622 -1.78915 -0.498469, xmax 0.373309 1.78911 4.0227m 
bounding box of vehicle: xmin -12.2 -1.30017 -1.63055e-10, xmax 3.80148e-18 1.30017 3.6m 
gts area: 163.395 
yplus max: 117.564, yplus min: 0.0197207 
position of yplus max: -12.0539 1.27856 1.99182 
yplus prom: 2.79327 
forces: 3046.796101 -0.103212 -871.175706 
Drag coefficient: 0.850210 
torque (ref. CG): 0.144497 (roll) -1048.657263 (pitch) 0.629592 (yaw) 
----------------------------------------------------- 
step 32, time 0.016000, maxvel 30.000000, total vol 183256, vol(u>maxvel) 7.33842, cell count 1764898
bounding box (containing cells with vel>maxvel): xmin -12.2622 -1.78915 -0.498469, xmax 0.373341 1.78911 4.0227m 
bounding box of vehicle: xmin -12.2 -1.30017 -1.63055e-10, xmax 3.80148e-18 1.30017 3.6m 
gts area: 163.395 
yplus max: 117.6, yplus min: 0.0153935 
position of yplus max: -12.0539 1.27856 1.99182 
yplus prom: 2.79735 
forces: 3046.614893 -0.107931 -871.227675 
Drag coefficient: 0.850159 
torque (ref. CG): 0.151104 (roll) -1049.227967 (pitch) 0.658380 (yaw) 
----------------------------------------------------- 
step 33, time 0.016500, maxvel 30.000000, total vol 183256, vol(u>maxvel) 7.33765, cell count 1763571
bounding box (containing cells with vel>maxvel): xmin -12.2622 -1.78915 -0.498469, xmax 0.373408 1.78911 4.0227m 
bounding box of vehicle: xmin -12.2 -1.30017 -1.63055e-10, xmax 3.80148e-18 1.30017 3.6m 
gts area: 163.395 
yplus max: 117.63, yplus min: 0.00784309 
position of yplus max: -12.0539 1.27856 1.99182 
yplus prom: 2.80094 
forces: 3046.180925 -0.080239 -871.373603 
Drag coefficient: 0.850038 
torque (ref. CG): 0.112335 (roll) -1050.725686 (pitch) 0.489460 (yaw) 
----------------------------------------------------- 
step 34, time 0.017000, maxvel 30.000000, total vol 183256, vol(u>maxvel) 7.33611, cell count 1761506
bounding box (containing cells with vel>maxvel): xmin -12.2622 -1.78915 -0.498469, xmax 0.374931 1.78911 4.0227m 
bounding box of vehicle: xmin -12.2 -1.30017 -1.63055e-10, xmax 3.80148e-18 1.30017 3.6m 
gts area: 163.395 
yplus max: 117.654, yplus min: 0.0103354 
position of yplus max: -12.0539 1.27856 1.99182 
yplus prom: 2.80415 
forces: 3046.085274 -0.100431 -871.215508 
Drag coefficient: 0.850012 
torque (ref. CG): 0.140603 (roll) -1049.895213 (pitch) 0.612627 (yaw) 
----------------------------------------------------- 
step 35, time 0.017500, maxvel 30.000000, total vol 183256, vol(u>maxvel) 7.34248, cell count 1759678
bounding box (containing cells with vel>maxvel): xmin -12.2622 -1.7891 -0.498469, xmax 0.375067 1.78907 4.0227m 
bounding box of vehicle: xmin -12.2 -1.30017 -1.63055e-10, xmax 3.80148e-18 1.30017 3.6m 
gts area: 163.395 
yplus max: 117.673, yplus min: 0.00945828 
position of yplus max: -12.0539 1.27856 1.99182 
yplus prom: 2.80704 
forces: 3045.718071 -0.071455 -871.329784 
Drag coefficient: 0.849909 
torque (ref. CG): 0.100037 (roll) -1051.106380 (pitch) 0.435875 (yaw) 
----------------------------------------------------- 
step 36, time 0.018000, maxvel 30.000000, total vol 183256, vol(u>maxvel) 7.35054, cell count 1756089
bounding box (containing cells with vel>maxvel): xmin -12.2622 -1.7891 -0.498469, xmax 0.375191 1.78907 4.0227m 
bounding box of vehicle: xmin -12.2 -1.30017 -1.63055e-10, xmax 3.80148e-18 1.30017 3.6m 
gts area: 163.395 
yplus max: 117.689, yplus min: 0.016968 
position of yplus max: -12.0539 1.27856 1.99182 
yplus prom: 2.80966 
forces: 3045.080138 -0.066156 -871.146562 
Drag coefficient: 0.849731 
torque (ref. CG): 0.092619 (roll) -1050.881837 (pitch) 0.403553 (yaw) 
----------------------------------------------------- 
step 37, time 0.018500, maxvel 30.000000, total vol 183256, vol(u>maxvel) 7.35382, cell count 1751050
bounding box (containing cells with vel>maxvel): xmin -12.2622 -1.78905 -0.498469, xmax 0.375538 1.78903 4.0227m 
bounding box of vehicle: xmin -12.2 -1.30017 -1.63055e-10, xmax 3.80148e-18 1.30017 3.6m 
gts area: 163.395 
yplus max: 117.701, yplus min: 0.0153347 
position of yplus max: -12.0539 1.27856 1.99182 
yplus prom: 2.81201 
forces: 3044.329236 -0.060520 -871.048137 
Drag coefficient: 0.849522 
torque (ref. CG): 0.084729 (roll) -1051.332708 (pitch) 0.369175 (yaw) 
----------------------------------------------------- 
step 38, time 0.019000, maxvel 30.000000, total vol 183256, vol(u>maxvel) 7.35305, cell count 1746875
bounding box (containing cells with vel>maxvel): xmin -12.2622 -1.78905 -0.498469, xmax 0.375552 1.78903 4.0227m 
bounding box of vehicle: xmin -12.2 -1.30017 -1.63055e-10, xmax 3.80148e-18 1.30017 3.6m 
gts area: 163.395 
yplus max: 117.711, yplus min: 0.0179788 
position of yplus max: -12.0539 1.27856 1.99182 
yplus prom: 2.81415 
forces: 3043.568973 -0.063864 -870.731589 
Drag coefficient: 0.849309 
torque (ref. CG): 0.089410 (roll) -1050.466128 (pitch) 0.389573 (yaw) 
----------------------------------------------------- 
step 39, time 0.019500, maxvel 30.000000, total vol 183256, vol(u>maxvel) 7.34845, cell count 1741418
bounding box (containing cells with vel>maxvel): xmin -12.2622 -1.78905 -0.498469, xmax 0.375563 1.78903 4.0227m 
bounding box of vehicle: xmin -12.2 -1.30017 -1.63055e-10, xmax 3.80148e-18 1.30017 3.6m 
gts area: 163.395 
yplus max: 117.719, yplus min: 0.0192221 
position of yplus max: -12.0539 1.27856 1.99182 
yplus prom: 2.8161 
forces: 3042.662292 -0.055551 -870.563968 
Drag coefficient: 0.849056 
torque (ref. CG): 0.077772 (roll) -1050.712994 (pitch) 0.338862 (yaw) 
----------------------------------------------------- 
step 40, time 0.020000, maxvel 30.000000, total vol 183256, vol(u>maxvel) 7.33875, cell count 1735912
bounding box (containing cells with vel>maxvel): xmin -12.2622 -1.78901 -0.498469, xmax 0.375579 1.78898 4.0227m 
bounding box of vehicle: xmin -12.2 -1.30017 -1.63055e-10, xmax 3.80148e-18 1.30017 3.6m 
gts area: 163.395 
yplus max: 117.725, yplus min: 0.0157968 
position of yplus max: -12.0539 1.27856 1.99182 
yplus prom: 2.81791 
forces: 3041.728117 -0.052591 -870.233440 
Drag coefficient: 0.848796 
torque (ref. CG): 0.073628 (roll) -1050.004621 (pitch) 0.320808 (yaw) 
----------------------------------------------------- 
step 41, time 0.020500, maxvel 30.000000, total vol 183256, vol(u>maxvel) 7.34604, cell count 1731295
bounding box (containing cells with vel>maxvel): xmin -12.2622 -1.78901 -0.498469, xmax 0.435499 1.78898 4.0227m 
bounding box of vehicle: xmin -12.2 -1.30017 -1.63055e-10, xmax 3.80148e-18 1.30017 3.6m 
gts area: 163.395 
yplus max: 117.729, yplus min: 0.0102358 
position of yplus max: -12.0539 1.27856 1.99182 
yplus prom: 2.81956 
forces: 3040.365130 -0.045369 -869.987709 
Drag coefficient: 0.848415 
torque (ref. CG): 0.063516 (roll) -1050.413842 (pitch) 0.276750 (yaw) 
----------------------------------------------------- 
step 42, time 0.021000, maxvel 30.000000, total vol 183256, vol(u>maxvel) 7.33974, cell count 1725723
bounding box (containing cells with vel>maxvel): xmin -12.2622 -1.78895 -0.498469, xmax 0.435578 1.78893 4.0227m 
bounding box of vehicle: xmin -12.2 -1.30017 -1.63055e-10, xmax 3.80148e-18 1.30017 3.6m 
gts area: 163.395 
yplus max: 117.732, yplus min: 0.00522351 
position of yplus max: -12.0539 1.27856 1.99182 
yplus prom: 2.82108 
forces: 3038.626309 -0.033836 -869.606956 
Drag coefficient: 0.847930 
torque (ref. CG): 0.047371 (roll) -1050.525598 (pitch) 0.206400 (yaw) 
----------------------------------------------------- 
step 43, time 0.021500, maxvel 30.000000, total vol 183256, vol(u>maxvel) 7.32893, cell count 1720361
bounding box (containing cells with vel>maxvel): xmin -12.2622 -1.78895 -0.498469, xmax 0.43563 1.78893 4.0227m 
bounding box of vehicle: xmin -12.2 -1.30017 -1.63055e-10, xmax 3.80148e-18 1.30017 3.6m 
gts area: 163.395 
yplus max: 117.734, yplus min: 0.0176527 
position of yplus max: -12.0539 1.27856 1.99182 
yplus prom: 2.82251 
forces: 3036.600877 -0.029988 -869.246983 
Drag coefficient: 0.847365 
torque (ref. CG): 0.041983 (roll) -1051.165368 (pitch) 0.182924 (yaw) 
----------------------------------------------------- 
step 44, time 0.022000, maxvel 30.000000, total vol 183256, vol(u>maxvel) 7.31164, cell count 1714378
bounding box (containing cells with vel>maxvel): xmin -12.2622 -1.7889 -0.498469, xmax 0.435688 1.78887 4.02256m 
bounding box of vehicle: xmin -12.2 -1.30017 -1.63055e-10, xmax 3.80148e-18 1.30017 3.6m 
gts area: 163.395 
yplus max: 117.735, yplus min: 0.0200192 
position of yplus max: -12.0539 1.27856 1.99182 
yplus prom: 2.82385 
forces: 3034.324483 -0.027556 -868.790887 
Drag coefficient: 0.846730 
torque (ref. CG): 0.038578 (roll) -1051.570134 (pitch) 0.168091 (yaw) 
----------------------------------------------------- 
step 45, time 0.022500, maxvel 30.000000, total vol 183256, vol(u>maxvel) 7.31599, cell count 1708423
bounding box (containing cells with vel>maxvel): xmin -12.2622 -1.7889 -0.498469, xmax 0.437267 1.78887 4.02256m 
bounding box of vehicle: xmin -12.2 -1.30017 -1.63055e-10, xmax 3.80148e-18 1.30017 3.6m 
gts area: 163.395 
yplus max: 117.735, yplus min: 0.0213713 
position of yplus max: -12.0539 1.27856 1.99182 
yplus prom: 2.82509 
forces: 3031.681171 -0.023053 -868.367355 
Drag coefficient: 0.845992 
torque (ref. CG): 0.032275 (roll) -1052.687228 (pitch) 0.140625 (yaw) 
----------------------------------------------------- 
step 46, time 0.023000, maxvel 30.000000, total vol 183256, vol(u>maxvel) 7.30878, cell count 1701841
bounding box (containing cells with vel>maxvel): xmin -12.2622 -1.78884 -0.498469, xmax 0.437373 1.78881 4.02256m 
bounding box of vehicle: xmin -12.2 -1.30017 -1.63055e-10, xmax 3.80148e-18 1.30017 3.6m 
gts area: 163.395 
yplus max: 117.735, yplus min: 0.017637 
position of yplus max: -12.0539 1.27856 1.99182 
yplus prom: 2.82623 
forces: 3028.636664 -0.020454 -867.894193 
Drag coefficient: 0.845143 
torque (ref. CG): 0.028636 (roll) -1054.063251 (pitch) 0.124771 (yaw) 
----------------------------------------------------- 
step 47, time 0.023500, maxvel 30.000000, total vol 183256, vol(u>maxvel) 7.29994, cell count 1694237
bounding box (containing cells with vel>maxvel): xmin -12.2622 -1.78878 -0.498469, xmax 0.437453 1.78875 4.02256m 
bounding box of vehicle: xmin -12.2 -1.30017 -1.63055e-10, xmax 3.80148e-18 1.30017 3.6m 
gts area: 163.395 
yplus max: 117.733, yplus min: 0.0234793 
position of yplus max: -12.0539 1.27856 1.99182 
yplus prom: 2.82729 
forces: 3025.237846 -0.010585 -867.504455 
Drag coefficient: 0.844194 
torque (ref. CG): 0.014818 (roll) -1056.444193 (pitch) 0.064566 (yaw) 
----------------------------------------------------- 
step 48, time 0.024000, maxvel 30.000000, total vol 183256, vol(u>maxvel) 7.2872, cell count 1687836
bounding box (containing cells with vel>maxvel): xmin -12.2622 -1.78871 -0.498469, xmax 0.437967 1.78869 4.02256m 
bounding box of vehicle: xmin -12.2 -1.30017 -1.63055e-10, xmax 3.80148e-18 1.30017 3.6m 
gts area: 163.395 
yplus max: 117.732, yplus min: 0.03357 
position of yplus max: -12.0539 1.27856 1.99182 
yplus prom: 2.82825 
forces: 3021.533245 -0.006899 -867.002082 
Drag coefficient: 0.843160 
torque (ref. CG): 0.009658 (roll) -1058.566158 (pitch) 0.042081 (yaw) 
----------------------------------------------------- 
step 49, time 0.024500, maxvel 30.000000, total vol 183256, vol(u>maxvel) 7.27588, cell count 1681033
bounding box (containing cells with vel>maxvel): xmin -12.2622 -1.78865 -0.498469, xmax 0.437975 1.78862 4.02256m 
bounding box of vehicle: xmin -12.2 -1.30017 -1.63055e-10, xmax 3.80148e-18 1.30017 3.6m 
gts area: 163.395 
yplus max: 117.73, yplus min: 0.0311154 
position of yplus max: -12.0539 1.27856 1.99182 
yplus prom: 2.82914 
forces: 3017.621437 -0.011194 -866.508847 
Drag coefficient: 0.842069 
torque (ref. CG): 0.015671 (roll) -1061.033955 (pitch) 0.068282 (yaw) 
----------------------------------------------------- 
step 50, time 0.025000, maxvel 30.000000, total vol 183256, vol(u>maxvel) 7.25852, cell count 1674359
bounding box (containing cells with vel>maxvel): xmin -12.2622 -1.7885 -0.498469, xmax 0.437981 1.78847 4.02256m 
bounding box of vehicle: xmin -12.2 -1.30017 -1.63055e-10, xmax 3.80148e-18 1.30017 3.6m 
gts area: 163.395 
yplus max: 117.727, yplus min: 0.0287337 
position of yplus max: -12.0539 1.27856 1.99182 
yplus prom: 2.82994 
forces: 3013.515471 -0.007387 -866.155751 
Drag coefficient: 0.840923 
torque (ref. CG): 0.010342 (roll) -1064.628422 (pitch) 0.045063 (yaw) 
----------------------------------------------------- 
step 51, time 0.025500, maxvel 30.000000, total vol 183256, vol(u>maxvel) 7.24508, cell count 1666287
bounding box (containing cells with vel>maxvel): xmin -12.2622 -1.78844 -0.498469, xmax 0.43799 1.78842 4.02086m 
bounding box of vehicle: xmin -12.2 -1.30017 -1.63055e-10, xmax 3.80148e-18 1.30017 3.6m 
gts area: 163.395 
yplus max: 117.728, yplus min: 0.0140666 
position of yplus max: -11.9995 -1.29373 2.03858 
yplus prom: 2.83065 
forces: 3009.053273 -0.001543 -865.623742 
Drag coefficient: 0.839678 
torque (ref. CG): 0.002160 (roll) -1067.630243 (pitch) 0.009410 (yaw) 
----------------------------------------------------- 
step 52, time 0.026000, maxvel 30.000000, total vol 183256, vol(u>maxvel) 7.22854, cell count 1658943
bounding box (containing cells with vel>maxvel): xmin -12.2622 -1.78844 -0.498469, xmax 0.438002 1.78842 4.02086m 
bounding box of vehicle: xmin -12.2 -1.30017 -1.63055e-10, xmax 3.80148e-18 1.30017 3.6m 
gts area: 163.395 
yplus max: 117.73, yplus min: 0.0323922 
position of yplus max: -11.9995 -1.29373 2.03858 
yplus prom: 2.83129 
forces: 3004.376542 -0.000247 -865.268677 
Drag coefficient: 0.838373 
torque (ref. CG): 0.000346 (roll) -1072.011770 (pitch) 0.001508 (yaw) 
----------------------------------------------------- 
step 53, time 0.026500, maxvel 30.000000, total vol 183256, vol(u>maxvel) 7.20732, cell count 1652441
bounding box (containing cells with vel>maxvel): xmin -12.2622 -1.78838 -0.498469, xmax 0.497815 1.78836 4.02086m 
bounding box of vehicle: xmin -12.2 -1.30017 -1.63055e-10, xmax 3.80148e-18 1.30017 3.6m 
gts area: 163.395 
yplus max: 117.731, yplus min: 0.0274902 
position of yplus max: -11.9995 -1.29373 2.03858 
yplus prom: 2.83185 
forces: 2999.487563 0.006362 -864.848065 
Drag coefficient: 0.837009 
torque (ref. CG): -0.008907 (roll) -1076.290609 (pitch) -0.038810 (yaw) 
----------------------------------------------------- 
step 54, time 0.027000, maxvel 30.000000, total vol 183256, vol(u>maxvel) 7.19291, cell count 1645501
bounding box (containing cells with vel>maxvel): xmin -12.2622 -1.78832 -0.498469, xmax 0.4979 1.7883 4.02086m 
bounding box of vehicle: xmin -12.2 -1.30017 -1.63055e-10, xmax 3.80148e-18 1.30017 3.6m 
gts area: 163.395 
yplus max: 117.732, yplus min: 0.0150614 
position of yplus max: -11.9995 -1.29373 2.03858 
yplus prom: 2.83235 
forces: 2994.457564 0.000308 -864.353851 
Drag coefficient: 0.835605 
torque (ref. CG): -0.000431 (roll) -1080.317905 (pitch) -0.001879 (yaw) 
----------------------------------------------------- 
step 55, time 0.027500, maxvel 30.000000, total vol 183256, vol(u>maxvel) 7.17174, cell count 1637660
bounding box (containing cells with vel>maxvel): xmin -12.2622 -1.78826 -0.498469, xmax 0.499185 1.78824 4.02086m 
bounding box of vehicle: xmin -12.2 -1.30017 -1.63055e-10, xmax 3.80148e-18 1.30017 3.6m 
gts area: 163.395 
yplus max: 117.732, yplus min: 0.0213442 
position of yplus max: -11.9995 -1.29373 2.03858 
yplus prom: 2.83279 
forces: 2989.302562 0.004699 -864.072551 
Drag coefficient: 0.834166 
torque (ref. CG): -0.006578 (roll) -1085.818973 (pitch) -0.028663 (yaw) 
----------------------------------------------------- 
step 56, time 0.028000, maxvel 30.000000, total vol 183256, vol(u>maxvel) 7.16491, cell count 1629492
bounding box (containing cells with vel>maxvel): xmin -12.2622 -1.78812 -0.498469, xmax 0.499537 1.7881 4.02086m 
bounding box of vehicle: xmin -12.2 -1.30017 -1.63055e-10, xmax 3.80148e-18 1.30017 3.6m 
gts area: 163.395 
yplus max: 117.732, yplus min: 0.0141006 
position of yplus max: -11.9995 -1.29373 2.03858 
yplus prom: 2.83316 
forces: 2983.892952 0.011922 -863.605947 
Drag coefficient: 0.832657 
torque (ref. CG): -0.016691 (roll) -1090.546144 (pitch) -0.072725 (yaw) 
----------------------------------------------------- 
step 57, time 0.028500, maxvel 30.000000, total vol 183256, vol(u>maxvel) 7.15688, cell count 1622316
bounding box (containing cells with vel>maxvel): xmin -12.2622 -1.78768 -0.498469, xmax 0.499612 1.78774 4.02086m 
bounding box of vehicle: xmin -12.2 -1.30017 -1.63055e-10, xmax 3.80148e-18 1.30017 3.6m 
gts area: 163.395 
yplus max: 117.731, yplus min: 0.02477 
position of yplus max: -11.9995 -1.29373 2.03858 
yplus prom: 2.83347 
forces: 2978.410437 0.004412 -863.353347 
Drag coefficient: 0.831127 
torque (ref. CG): -0.006177 (roll) -1096.680807 (pitch) -0.026913 (yaw) 
----------------------------------------------------- 
step 58, time 0.029000, maxvel 30.000000, total vol 183256, vol(u>maxvel) 7.14594, cell count 1614264
bounding box (containing cells with vel>maxvel): xmin -12.2622 -1.7865 -0.498469, xmax 0.499693 1.78649 4.01877m 
bounding box of vehicle: xmin -12.2 -1.30017 -1.63055e-10, xmax 3.80148e-18 1.30017 3.6m 
gts area: 163.395 
yplus max: 117.729, yplus min: 0.0119431 
position of yplus max: -11.9995 -1.29373 2.03858 
yplus prom: 2.83372 
forces: 2972.731305 0.025099 -862.973451 
Drag coefficient: 0.829542 
torque (ref. CG): -0.035139 (roll) -1102.314225 (pitch) -0.153105 (yaw) 
----------------------------------------------------- 
step 59, time 0.029500, maxvel 30.000000, total vol 183256, vol(u>maxvel) 7.13299, cell count 1605853
bounding box (containing cells with vel>maxvel): xmin -12.2622 -1.78646 -0.498469, xmax 0.499778 1.78644 4.01877m 
bounding box of vehicle: xmin -12.2 -1.30017 -1.63055e-10, xmax 3.80148e-18 1.30017 3.6m 
gts area: 163.395 
yplus max: 117.728, yplus min: 0.0264664 
position of yplus max: -11.9995 -1.29373 2.03858 
yplus prom: 2.83391 
forces: 2966.945181 0.010004 -862.533999 
Drag coefficient: 0.827928 
torque (ref. CG): -0.014006 (roll) -1107.734141 (pitch) -0.061025 (yaw) 
----------------------------------------------------- 
step 60, time 0.030000, maxvel 30.000000, total vol 183256, vol(u>maxvel) 7.11795, cell count 1597646
bounding box (containing cells with vel>maxvel): xmin -12.2622 -1.78641 -0.498469, xmax 0.501359 1.78639 4.01877m 
bounding box of vehicle: xmin -12.2 -1.30017 -1.63055e-10, xmax 3.80148e-18 1.30017 3.6m 
gts area: 163.395 
yplus max: 117.726, yplus min: 0.0258324 
position of yplus max: -11.9995 -1.29373 2.03858 
yplus prom: 2.83404 
forces: 2961.133627 0.016702 -862.372656 
Drag coefficient: 0.826306 
torque (ref. CG): -0.023383 (roll) -1114.886123 (pitch) -0.101882 (yaw) 
----------------------------------------------------- 
step 61, time 0.030500, maxvel 30.000000, total vol 183256, vol(u>maxvel) 7.10712, cell count 1589030
bounding box (containing cells with vel>maxvel): xmin -12.2622 -1.78637 -0.498469, xmax 0.501366 1.78634 4.01877m 
bounding box of vehicle: xmin -12.2 -1.30017 -1.63055e-10, xmax 3.80148e-18 1.30017 3.6m 
gts area: 163.395 
yplus max: 117.724, yplus min: 0.0221333 
position of yplus max: -11.9995 -1.29373 2.03858 
yplus prom: 2.83412 
forces: 2955.097300 0.025866 -861.950358 
Drag coefficient: 0.824621 
torque (ref. CG): -0.036213 (roll) -1120.760965 (pitch) -0.157785 (yaw) 
----------------------------------------------------- 
step 62, time 0.031000, maxvel 30.000000, total vol 183256, vol(u>maxvel) 7.08843, cell count 1580749
bounding box (containing cells with vel>maxvel): xmin -12.2622 -1.78621 -0.498469, xmax 0.501369 1.78618 4.01877m 
bounding box of vehicle: xmin -12.2 -1.30017 -1.63055e-10, xmax 3.80148e-18 1.30017 3.6m 
gts area: 163.395 
yplus max: 117.722, yplus min: 0.0305909 
position of yplus max: -11.9995 -1.29373 2.03858 
yplus prom: 2.83414 
forces: 2948.988768 0.016856 -861.681434 
Drag coefficient: 0.822917 
torque (ref. CG): -0.023599 (roll) -1127.672474 (pitch) -0.102824 (yaw) 
----------------------------------------------------- 
step 63, time 0.031500, maxvel 30.000000, total vol 183256, vol(u>maxvel) 7.06756, cell count 1572436
bounding box (containing cells with vel>maxvel): xmin -12.2622 -1.78492 -0.498469, xmax 0.501373 1.7849 4.01782m 
bounding box of vehicle: xmin -12.2 -1.30017 -1.63055e-10, xmax 3.80148e-18 1.30017 3.6m 
gts area: 163.395 
yplus max: 117.719, yplus min: 0.0157596 
position of yplus max: -11.9995 -1.29373 2.03858 
yplus prom: 2.83413 
forces: 2942.761678 0.030067 -861.453161 
Drag coefficient: 0.821179 
torque (ref. CG): -0.042093 (roll) -1134.997932 (pitch) -0.183406 (yaw) 
----------------------------------------------------- 
step 64, time 0.032000, maxvel 30.000000, total vol 183256, vol(u>maxvel) 7.04913, cell count 1563565
bounding box (containing cells with vel>maxvel): xmin -12.2622 -1.78488 -0.498469, xmax 0.559928 1.78487 4.01782m 
bounding box of vehicle: xmin -12.2 -1.30017 -1.63055e-10, xmax 3.80148e-18 1.30017 3.6m 
gts area: 163.395 
yplus max: 117.716, yplus min: 0.0226374 
position of yplus max: -11.9995 -1.29373 2.03858 
yplus prom: 2.83411 
forces: 2936.388199 0.015958 -861.078180 
Drag coefficient: 0.819401 
torque (ref. CG): -0.022341 (roll) -1141.633419 (pitch) -0.097342 (yaw) 
----------------------------------------------------- 
step 65, time 0.032500, maxvel 30.000000, total vol 183256, vol(u>maxvel) 7.03156, cell count 1554753
bounding box (containing cells with vel>maxvel): xmin -12.2622 -1.78485 -0.498469, xmax 0.560119 1.78479 3.96033m 
bounding box of vehicle: xmin -12.2 -1.30017 -1.63055e-10, xmax 3.80148e-18 1.30017 3.6m 
gts area: 163.395 
yplus max: 117.714, yplus min: 0.0275523 
position of yplus max: -11.9995 -1.29373 2.03858 
yplus prom: 2.83408 
forces: 2929.965038 0.027854 -860.960453 
Drag coefficient: 0.817608 
torque (ref. CG): -0.038995 (roll) -1149.907714 (pitch) -0.169908 (yaw) 
----------------------------------------------------- 
step 66, time 0.033000, maxvel 30.000000, total vol 183256, vol(u>maxvel) 7.01473, cell count 1546007
bounding box (containing cells with vel>maxvel): xmin -12.2622 -1.72671 -0.498469, xmax 0.560211 1.72669 3.96033m 
bounding box of vehicle: xmin -12.2 -1.30017 -1.63055e-10, xmax 3.80148e-18 1.30017 3.6m 
gts area: 163.395 
yplus max: 117.711, yplus min: 0.0290693 
position of yplus max: -11.9995 -1.29373 2.03858 
yplus prom: 2.83404 
forces: 2923.448914 0.026569 -860.650290 
Drag coefficient: 0.815790 
torque (ref. CG): -0.037196 (roll) -1157.138287 (pitch) -0.162069 (yaw) 
----------------------------------------------------- 
step 67, time 0.033500, maxvel 30.000000, total vol 183256, vol(u>maxvel) 7.00643, cell count 1536634
bounding box (containing cells with vel>maxvel): xmin -12.2622 -1.7266 -0.498469, xmax 0.561732 1.72658 3.96031m 
bounding box of vehicle: xmin -12.2 -1.30017 -1.63055e-10, xmax 3.80148e-18 1.30017 3.6m 
gts area: 163.395 
yplus max: 117.708, yplus min: 0.0286919 
position of yplus max: -11.9995 -1.29373 2.03858 
yplus prom: 2.83396 
forces: 2916.839956 0.025769 -860.421135 
Drag coefficient: 0.813946 
torque (ref. CG): -0.036076 (roll) -1164.992986 (pitch) -0.157189 (yaw) 
----------------------------------------------------- 
step 68, time 0.034000, maxvel 30.000000, total vol 183256, vol(u>maxvel) 7.00599, cell count 1527628
bounding box (containing cells with vel>maxvel): xmin -12.2622 -1.72651 -0.498469, xmax 0.561827 1.72648 3.96031m 
bounding box of vehicle: xmin -12.2 -1.30017 -1.63055e-10, xmax 3.80148e-18 1.30017 3.6m 
gts area: 163.395 
yplus max: 117.705, yplus min: 0.0155235 
position of yplus max: -11.9995 -1.29373 2.03858 
yplus prom: 2.83383 
forces: 2910.239683 0.034335 -860.236727 
Drag coefficient: 0.812104 
torque (ref. CG): -0.048069 (roll) -1173.108481 (pitch) -0.209445 (yaw) 
----------------------------------------------------- 
step 69, time 0.034500, maxvel 30.000000, total vol 183256, vol(u>maxvel) 6.99701, cell count 1519138
bounding box (containing cells with vel>maxvel): xmin -12.2622 -1.72647 -0.498469, xmax 0.561908 1.72644 3.9603m 
bounding box of vehicle: xmin -12.2 -1.30017 -1.63055e-10, xmax 3.80148e-18 1.30017 3.6m 
gts area: 163.395 
yplus max: 117.702, yplus min: 0.0277297 
position of yplus max: -11.9995 -1.29373 2.03858 
yplus prom: 2.83367 
forces: 2903.559707 0.027654 -859.921641 
Drag coefficient: 0.810240 
torque (ref. CG): -0.038716 (roll) -1180.538421 (pitch) -0.168690 (yaw) 
----------------------------------------------------- 
step 70, time 0.035000, maxvel 30.000000, total vol 183256, vol(u>maxvel) 6.99276, cell count 1510585
bounding box (containing cells with vel>maxvel): xmin -12.2622 -1.72644 -0.498469, xmax 0.562325 1.72643 3.96029m 
bounding box of vehicle: xmin -12.2 -1.30017 -1.63055e-10, xmax 3.80148e-18 1.30017 3.6m 
gts area: 163.395 
yplus max: 117.699, yplus min: 0.0275251 
position of yplus max: -11.9995 -1.29373 2.03858 
yplus prom: 2.83347 
forces: 2896.864520 0.022339 -859.832407 
Drag coefficient: 0.808372 
torque (ref. CG): -0.031274 (roll) -1189.367355 (pitch) -0.136267 (yaw) 
----------------------------------------------------- 
step 71, time 0.035500, maxvel 30.000000, total vol 183256, vol(u>maxvel) 6.97509, cell count 1502018
bounding box (containing cells with vel>maxvel): xmin -12.2622 -1.72641 -0.498469, xmax 0.562326 1.7264 3.96029m 
bounding box of vehicle: xmin -12.2 -1.30017 -1.63055e-10, xmax 3.80148e-18 1.30017 3.6m 
gts area: 163.395 
yplus max: 117.696, yplus min: 0.0271267 
position of yplus max: -11.9995 -1.29373 2.03858 
yplus prom: 2.83323 
forces: 2890.184011 0.044257 -859.567934 
Drag coefficient: 0.806507 
torque (ref. CG): -0.061960 (roll) -1197.106782 (pitch) -0.269970 (yaw) 
----------------------------------------------------- 
step 72, time 0.036000, maxvel 30.000000, total vol 183256, vol(u>maxvel) 6.9598, cell count 1493478
bounding box (containing cells with vel>maxvel): xmin -12.2622 -1.72641 -0.498469, xmax 0.562326 1.7264 3.95863m 
bounding box of vehicle: xmin -12.2 -1.30017 -1.63055e-10, xmax 3.80148e-18 1.30017 3.6m 
gts area: 163.395 
yplus max: 117.693, yplus min: 0.0267317 
position of yplus max: -11.9995 -1.29373 2.03858 
yplus prom: 2.83295 
forces: 2883.310906 0.042813 -859.338925 
Drag coefficient: 0.804589 
torque (ref. CG): -0.059939 (roll) -1205.332175 (pitch) -0.261162 (yaw) 
----------------------------------------------------- 
step 73, time 0.036500, maxvel 30.000000, total vol 183256, vol(u>maxvel) 6.93525, cell count 1485002
bounding box (containing cells with vel>maxvel): xmin -12.2622 -1.72641 -0.498469, xmax 0.564617 1.7264 3.95863m 
bounding box of vehicle: xmin -12.2 -1.30017 -1.63055e-10, xmax 3.80148e-18 1.30017 3.6m 
gts area: 163.395 
yplus max: 117.69, yplus min: 0.0263363 
position of yplus max: -11.9995 -1.29373 2.03858 
yplus prom: 2.83263 
forces: 2876.613531 0.037076 -859.265030 
Drag coefficient: 0.802720 
torque (ref. CG): -0.051907 (roll) -1214.257739 (pitch) -0.226166 (yaw) 
----------------------------------------------------- 
step 74, time 0.037000, maxvel 30.000000, total vol 183256, vol(u>maxvel) 6.91545, cell count 1476211
bounding box (containing cells with vel>maxvel): xmin -12.2622 -1.72641 -0.498469, xmax 0.56462 1.7264 3.95863m 
bounding box of vehicle: xmin -12.2 -1.30017 -1.63055e-10, xmax 3.80148e-18 1.30017 3.6m 
gts area: 163.395 
yplus max: 117.687, yplus min: 0.0259197 
position of yplus max: -11.9995 -1.29373 2.03858 
yplus prom: 2.83227 
forces: 2869.748867 0.045345 -858.988566 
Drag coefficient: 0.800805 
torque (ref. CG): -0.063483 (roll) -1222.181839 (pitch) -0.276606 (yaw) 
----------------------------------------------------- 
step 75, time 0.037500, maxvel 30.000000, total vol 183256, vol(u>maxvel) 6.9077, cell count 1467534
bounding box (containing cells with vel>maxvel): xmin -12.2622 -1.72641 -0.498469, xmax 0.56462 1.7264 3.95863m 
bounding box of vehicle: xmin -12.2 -1.30017 -1.63055e-10, xmax 3.80148e-18 1.30017 3.6m 
gts area: 163.395 
yplus max: 117.684, yplus min: 0.0255203 
position of yplus max: -11.9995 -1.29373 2.03858 
yplus prom: 2.83187 
forces: 2863.028106 0.038428 -858.862786 
Drag coefficient: 0.798929 
torque (ref. CG): -0.053800 (roll) -1230.823647 (pitch) -0.234412 (yaw) 
----------------------------------------------------- 
step 76, time 0.038000, maxvel 30.000000, total vol 183256, vol(u>maxvel) 6.89932, cell count 1459069
bounding box (containing cells with vel>maxvel): xmin -12.2622 -1.72641 -0.498469, xmax 0.564624 1.7264 3.9586m 
bounding box of vehicle: xmin -12.2 -1.30017 -1.63055e-10, xmax 3.80148e-18 1.30017 3.6m 
gts area: 163.395 
yplus max: 117.682, yplus min: 0.0251001 
position of yplus max: -11.9995 -1.29373 2.03858 
yplus prom: 2.83144 
forces: 2856.177954 0.041617 -858.637985 
Drag coefficient: 0.797018 
torque (ref. CG): -0.058264 (roll) -1239.042570 (pitch) -0.253865 (yaw) 
----------------------------------------------------- 
step 77, time 0.038500, maxvel 30.000000, total vol 183256, vol(u>maxvel) 6.88855, cell count 1450212
bounding box (containing cells with vel>maxvel): xmin -12.2622 -1.72641 -0.498469, xmax 0.62317 1.7264 3.9586m 
bounding box of vehicle: xmin -12.2 -1.30017 -1.63055e-10, xmax 3.80148e-18 1.30017 3.6m 
gts area: 163.395 
yplus max: 117.679, yplus min: 0.0246925 
position of yplus max: -11.9995 -1.29373 2.03858 
yplus prom: 2.83098 
forces: 2849.461192 0.050686 -858.509657 
Drag coefficient: 0.795144 
torque (ref. CG): -0.070960 (roll) -1247.663236 (pitch) -0.309184 (yaw) 
----------------------------------------------------- 
step 78, time 0.039000, maxvel 30.000000, total vol 183256, vol(u>maxvel) 6.87514, cell count 1440988
bounding box (containing cells with vel>maxvel): xmin -12.2622 -1.72641 -0.498469, xmax 0.624355 1.7264 3.9586m 
bounding box of vehicle: xmin -12.2 -1.30017 -1.63055e-10, xmax 3.80148e-18 1.30017 3.6m 
gts area: 163.395 
yplus max: 117.676, yplus min: 0.0242676 
position of yplus max: -11.9995 -1.29373 2.03858 
yplus prom: 2.8305 
forces: 2842.547788 0.057360 -858.338503 
Drag coefficient: 0.793214 
torque (ref. CG): -0.080304 (roll) -1256.297965 (pitch) -0.349895 (yaw) 
----------------------------------------------------- 
step 79, time 0.039500, maxvel 30.000000, total vol 183256, vol(u>maxvel) 6.86664, cell count 1432576
bounding box (containing cells with vel>maxvel): xmin -12.2622 -1.72641 -0.498469, xmax 0.624707 1.7264 3.9586m 
bounding box of vehicle: xmin -12.2 -1.30017 -1.63055e-10, xmax 3.80148e-18 1.30017 3.6m 
gts area: 163.395 
yplus max: 117.673, yplus min: 0.0238472 
position of yplus max: -11.9995 -1.29373 2.03858 
yplus prom: 2.82998 
forces: 2835.805465 0.035485 -858.121688 
Drag coefficient: 0.791333 
torque (ref. CG): -0.049679 (roll) -1264.414649 (pitch) -0.216458 (yaw) 
----------------------------------------------------- 
step 80, time 0.040000, maxvel 30.000000, total vol 183256, vol(u>maxvel) 6.8648, cell count 1424793
bounding box (containing cells with vel>maxvel): xmin -12.2622 -1.72641 -0.498469, xmax 0.624829 1.7264 3.9586m 
bounding box of vehicle: xmin -12.2 -1.30017 -1.63055e-10, xmax 3.80148e-18 1.30017 3.6m 
gts area: 163.395 
yplus max: 117.67, yplus min: 0.0234124 
position of yplus max: -11.9995 -1.29373 2.03858 
yplus prom: 2.82945 
forces: 2828.959242 0.068980 -857.976661 
Drag coefficient: 0.789423 
torque (ref. CG): -0.096572 (roll) -1273.114696 (pitch) -0.420777 (yaw) 
----------------------------------------------------- 
step 81, time 0.040500, maxvel 30.000000, total vol 183256, vol(u>maxvel) 6.85149, cell count 1417282
bounding box (containing cells with vel>maxvel): xmin -12.2622 -1.72636 -0.498469, xmax 0.624876 1.72636 3.9586m 
bounding box of vehicle: xmin -12.2 -1.30017 -1.63055e-10, xmax 3.80148e-18 1.30017 3.6m 
gts area: 163.395 
yplus max: 117.668, yplus min: 0.0229953 
position of yplus max: -11.9995 -1.29373 2.03858 
yplus prom: 2.8289 
forces: 2822.423681 0.045632 -857.775452 
Drag coefficient: 0.787599 
torque (ref. CG): -0.063884 (roll) -1281.037104 (pitch) -0.278353 (yaw) 
----------------------------------------------------- 
step 82, time 0.041000, maxvel 30.000000, total vol 183256, vol(u>maxvel) 6.83095, cell count 1410247
bounding box (containing cells with vel>maxvel): xmin -12.2622 -1.72636 -0.498469, xmax 0.624933 1.72636 3.9586m 
bounding box of vehicle: xmin -12.2 -1.30017 -1.63055e-10, xmax 3.80148e-18 1.30017 3.6m 
gts area: 163.395 
yplus max: 117.665, yplus min: 0.0225532 
position of yplus max: -11.9995 -1.29373 2.03858 
yplus prom: 2.82833 
forces: 2815.739948 0.063547 -857.598984 
Drag coefficient: 0.785734 
torque (ref. CG): -0.088966 (roll) -1289.317874 (pitch) -0.387638 (yaw) 
----------------------------------------------------- 
step 83, time 0.041500, maxvel 30.000000, total vol 183256, vol(u>maxvel) 6.817, cell count 1403293
bounding box (containing cells with vel>maxvel): xmin -12.2622 -1.72633 -0.498469, xmax 0.624988 1.72633 3.9586m 
bounding box of vehicle: xmin -12.2 -1.30017 -1.63055e-10, xmax 3.80148e-18 1.30017 3.6m 
gts area: 163.395 
yplus max: 117.662, yplus min: 0.0221179 
position of yplus max: -11.9995 -1.29373 2.03858 
yplus prom: 2.82774 
forces: 2809.215082 0.070546 -857.426315 
Drag coefficient: 0.783913 
torque (ref. CG): -0.098764 (roll) -1297.399408 (pitch) -0.430331 (yaw) 
----------------------------------------------------- 
step 84, time 0.042000, maxvel 30.000000, total vol 183256, vol(u>maxvel) 6.80198, cell count 1396636
bounding box (containing cells with vel>maxvel): xmin -12.2622 -1.72633 -0.498469, xmax 0.625039 1.72633 3.9586m 
bounding box of vehicle: xmin -12.2 -1.30017 -1.63055e-10, xmax 3.80148e-18 1.30017 3.6m 
gts area: 163.395 
yplus max: 117.66, yplus min: 0.021683 
position of yplus max: -11.9995 -1.29373 2.03858 
yplus prom: 2.82713 
forces: 2802.826814 0.044326 -857.204983 
Drag coefficient: 0.782130 
torque (ref. CG): -0.062056 (roll) -1304.992859 (pitch) -0.270389 (yaw) 
----------------------------------------------------- 
step 85, time 0.042500, maxvel 30.000000, total vol 183256, vol(u>maxvel) 6.7838, cell count 1389802
bounding box (containing cells with vel>maxvel): xmin -12.2622 -1.72633 -0.498469, xmax 0.625039 1.72633 3.95858m 
bounding box of vehicle: xmin -12.2 -1.30017 -1.63055e-10, xmax 3.80148e-18 1.30017 3.6m 
gts area: 163.395 
yplus max: 117.657, yplus min: 0.0212414 
position of yplus max: -11.9995 -1.29373 2.03858 
yplus prom: 2.8265 
forces: 2796.381815 0.086544 -857.068239 
Drag coefficient: 0.780332 
torque (ref. CG): -0.121162 (roll) -1313.181717 (pitch) -0.527921 (yaw) 
----------------------------------------------------- 
step 86, time 0.043000, maxvel 30.000000, total vol 183256, vol(u>maxvel) 6.78055, cell count 1383795
bounding box (containing cells with vel>maxvel): xmin -12.2622 -1.72633 -0.498469, xmax 0.625088 1.72633 3.95858m 
bounding box of vehicle: xmin -12.2 -1.30017 -1.63055e-10, xmax 3.80148e-18 1.30017 3.6m 
gts area: 163.395 
yplus max: 117.655, yplus min: 0.0208048 
position of yplus max: -11.9995 -1.29373 2.03858 
yplus prom: 2.82586 
forces: 2790.038334 0.056081 -856.858180 
Drag coefficient: 0.778562 
torque (ref. CG): -0.078514 (roll) -1320.781231 (pitch) -0.342095 (yaw) 
----------------------------------------------------- 
step 87, time 0.043500, maxvel 30.000000, total vol 183256, vol(u>maxvel) 6.7697, cell count 1377719
bounding box (containing cells with vel>maxvel): xmin -12.2622 -1.72633 -0.498469, xmax 0.626849 1.72633 3.95645m 
bounding box of vehicle: xmin -12.2 -1.30017 -1.63055e-10, xmax 3.80148e-18 1.30017 3.6m 
gts area: 163.395 
yplus max: 117.653, yplus min: 0.0203628 
position of yplus max: -11.9995 -1.29373 2.03858 
yplus prom: 2.82521 
forces: 2783.664590 0.088522 -856.662204 
Drag coefficient: 0.776783 
torque (ref. CG): -0.123931 (roll) -1328.509021 (pitch) -0.539984 (yaw) 
----------------------------------------------------- 
step 88, time 0.044000, maxvel 30.000000, total vol 183256, vol(u>maxvel) 6.74806, cell count 1369588
bounding box (containing cells with vel>maxvel): xmin -12.2622 -1.72633 -0.498469, xmax 0.626849 1.72633 3.95645m 
bounding box of vehicle: xmin -12.2 -1.30017 -1.63055e-10, xmax 3.80148e-18 1.30017 3.6m 
gts area: 163.395 
yplus max: 117.65, yplus min: 0.0199312 
position of yplus max: -11.9995 -1.29373 2.03858 
yplus prom: 2.82453 
forces: 2777.414135 0.052560 -856.383266 
Drag coefficient: 0.775039 
torque (ref. CG): -0.073584 (roll) -1335.558135 (pitch) -0.320617 (yaw) 
----------------------------------------------------- 
step 89, time 0.044500, maxvel 30.000000, total vol 183256, vol(u>maxvel) 6.73446, cell count 1362960
bounding box (containing cells with vel>maxvel): xmin -12.2622 -1.72633 -0.498469, xmax 0.68606 1.72633 3.95645m 
bounding box of vehicle: xmin -12.2 -1.30017 -1.63055e-10, xmax 3.80148e-18 1.30017 3.6m 
gts area: 163.395 
yplus max: 117.648, yplus min: 0.0194998 
position of yplus max: -11.9995 -1.29373 2.03858 
yplus prom: 2.82384 
forces: 2771.200124 0.088351 -856.209931 
Drag coefficient: 0.773305 
torque (ref. CG): -0.123692 (roll) -1343.200406 (pitch) -0.538943 (yaw) 
----------------------------------------------------- 
step 90, time 0.045000, maxvel 30.000000, total vol 183256, vol(u>maxvel) 6.70881, cell count 1356327
bounding box (containing cells with vel>maxvel): xmin -12.2622 -1.72633 -0.498469, xmax 0.687224 1.72633 3.95645m 
bounding box of vehicle: xmin -12.2 -1.30017 -1.63055e-10, xmax 3.80148e-18 1.30017 3.6m 
gts area: 163.395 
yplus max: 117.646, yplus min: 0.0190744 
position of yplus max: -11.9995 -1.29373 2.03858 
yplus prom: 2.82313 
forces: 2765.140092 0.085082 -855.904897 
Drag coefficient: 0.771614 
torque (ref. CG): -0.119115 (roll) -1349.823740 (pitch) -0.519001 (yaw) 
----------------------------------------------------- 
step 91, time 0.045500, maxvel 30.000000, total vol 183256, vol(u>maxvel) 6.68131, cell count 1349687
bounding box (containing cells with vel>maxvel): xmin -12.2622 -1.72633 -0.498469, xmax 0.687576 1.72633 3.95645m 
bounding box of vehicle: xmin -12.2 -1.30017 -1.63055e-10, xmax 3.80148e-18 1.30017 3.6m 
gts area: 163.395 
yplus max: 117.644, yplus min: 0.0186664 
position of yplus max: -11.9995 -1.29373 2.03858 
yplus prom: 2.8224 
forces: 2759.143564 0.077578 -855.669115 
Drag coefficient: 0.769940 
torque (ref. CG): -0.108609 (roll) -1356.780611 (pitch) -0.473224 (yaw) 
----------------------------------------------------- 
step 92, time 0.046000, maxvel 30.000000, total vol 183256, vol(u>maxvel) 6.66987, cell count 1343503
bounding box (containing cells with vel>maxvel): xmin -12.2622 -1.72633 -0.498469, xmax 0.687733 1.72633 3.95645m 
bounding box of vehicle: xmin -12.2 -1.30017 -1.63055e-10, xmax 3.80148e-18 1.30017 3.6m 
gts area: 163.395 
yplus max: 117.642, yplus min: 0.0182648 
position of yplus max: -11.9995 -1.29373 2.03858 
yplus prom: 2.82165 
forces: 2753.200666 0.088315 -855.395303 
Drag coefficient: 0.768282 
torque (ref. CG): -0.123641 (roll) -1363.430414 (pitch) -0.538721 (yaw) 
----------------------------------------------------- 
step 93, time 0.046500, maxvel 30.000000, total vol 183256, vol(u>maxvel) 6.66735, cell count 1337744
bounding box (containing cells with vel>maxvel): xmin -12.2622 -1.72633 -0.498469, xmax 0.687803 1.72633 3.95645m 
bounding box of vehicle: xmin -12.2 -1.30017 -1.63055e-10, xmax 3.80148e-18 1.30017 3.6m 
gts area: 163.395 
yplus max: 117.64, yplus min: 0.0178925 
position of yplus max: -11.9995 -1.29373 2.03858 
yplus prom: 2.82089 
forces: 2747.320999 0.090839 -855.082897 
Drag coefficient: 0.766641 
torque (ref. CG): -0.127175 (roll) -1369.756274 (pitch) -0.554119 (yaw) 
----------------------------------------------------- 
step 94, time 0.047000, maxvel 30.000000, total vol 183256, vol(u>maxvel) 6.65947, cell count 1332223
bounding box (containing cells with vel>maxvel): xmin -12.2622 -1.72633 -0.498469, xmax 0.687862 1.72633 3.95645m 
bounding box of vehicle: xmin -12.2 -1.30017 -1.63055e-10, xmax 3.80148e-18 1.30017 3.6m 
gts area: 163.395 
yplus max: 117.638, yplus min: 0.0175373 
position of yplus max: -11.9995 -1.29373 2.03858 
yplus prom: 2.82011 
forces: 2741.524596 0.089962 -854.812259 
Drag coefficient: 0.765024 
torque (ref. CG): -0.125947 (roll) -1376.220344 (pitch) -0.548771 (yaw) 
----------------------------------------------------- 
step 95, time 0.047500, maxvel 30.000000, total vol 183256, vol(u>maxvel) 6.64857, cell count 1325923
bounding box (containing cells with vel>maxvel): xmin -12.2622 -1.72633 -0.498469, xmax 0.687931 1.72633 3.95645m 
bounding box of vehicle: xmin -12.2 -1.30017 -1.63055e-10, xmax 3.80148e-18 1.30017 3.6m 
gts area: 163.395 
yplus max: 117.636, yplus min: 0.0172161 
position of yplus max: -11.9995 -1.29373 2.03858 
yplus prom: 2.8193 
forces: 2735.776308 0.097490 -854.511025 
Drag coefficient: 0.763420 
torque (ref. CG): -0.136486 (roll) -1382.430419 (pitch) -0.594691 (yaw) 
----------------------------------------------------- 
step 96, time 0.048000, maxvel 30.000000, total vol 183256, vol(u>maxvel) 6.63972, cell count 1320018
bounding box (containing cells with vel>maxvel): xmin -12.2622 -1.72633 -0.498469, xmax 0.687931 1.72633 3.95645m 
bounding box of vehicle: xmin -12.2 -1.30017 -1.63055e-10, xmax 3.80148e-18 1.30017 3.6m 
gts area: 163.395 
yplus max: 117.634, yplus min: 0.0169335 
position of yplus max: -11.9995 -1.29373 2.03858 
yplus prom: 2.81849 
forces: 2730.076102 0.100822 -854.190547 
Drag coefficient: 0.761829 
torque (ref. CG): -0.141151 (roll) -1388.455797 (pitch) -0.615015 (yaw) 
----------------------------------------------------- 
step 97, time 0.048500, maxvel 30.000000, total vol 183256, vol(u>maxvel) 6.6207, cell count 1313171
bounding box (containing cells with vel>maxvel): xmin -12.2622 -1.72633 -0.498469, xmax 0.687996 1.72633 3.95643m 
bounding box of vehicle: xmin -12.2 -1.30017 -1.63055e-10, xmax 3.80148e-18 1.30017 3.6m 
gts area: 163.395 
yplus max: 117.632, yplus min: 0.0166976 
position of yplus max: -11.9995 -1.29373 2.03858 
yplus prom: 2.81765 
forces: 2724.435926 0.102704 -853.860747 
Drag coefficient: 0.760255 
torque (ref. CG): -0.143786 (roll) -1394.340258 (pitch) -0.626494 (yaw) 
----------------------------------------------------- 
step 98, time 0.049000, maxvel 30.000000, total vol 183256, vol(u>maxvel) 6.60139, cell count 1306235
bounding box (containing cells with vel>maxvel): xmin -12.2622 -1.72633 -0.498469, xmax 0.688056 1.72633 3.95643m 
bounding box of vehicle: xmin -12.2 -1.30017 -1.63055e-10, xmax 3.80148e-18 1.30017 3.6m 
gts area: 163.395 
yplus max: 117.63, yplus min: 0.0165136 
position of yplus max: -11.9995 -1.29373 2.03858 
yplus prom: 2.8168 
forces: 2718.880013 0.107129 -853.541137 
Drag coefficient: 0.758705 
torque (ref. CG): -0.149981 (roll) -1400.168915 (pitch) -0.653487 (yaw) 
----------------------------------------------------- 
step 99, time 0.049500, maxvel 30.000000, total vol 183256, vol(u>maxvel) 6.5822, cell count 1299481
bounding box (containing cells with vel>maxvel): xmin -12.2622 -1.72633 -0.498469, xmax 0.688056 1.72633 3.95643m 
bounding box of vehicle: xmin -12.2 -1.30017 -1.63055e-10, xmax 3.80148e-18 1.30017 3.6m 
gts area: 163.395 
yplus max: 117.628, yplus min: 0.0163888 
position of yplus max: -11.9995 -1.29373 2.03858 
yplus prom: 2.81594 
forces: 2713.389737 0.109175 -853.215367 
Drag coefficient: 0.757173 
torque (ref. CG): -0.152845 (roll) -1405.868105 (pitch) -0.665967 (yaw) 
----------------------------------------------------- 
step 100, time 0.050000, maxvel 30.000000, total vol 183256, vol(u>maxvel) 6.56095, cell count 1292123
bounding box (containing cells with vel>maxvel): xmin -12.2622 -1.72633 -0.498469, xmax 0.688116 1.72633 3.95643m 
bounding box of vehicle: xmin -12.2 -1.30017 -1.63055e-10, xmax 3.80148e-18 1.30017 3.6m 
gts area: 163.395 
yplus max: 117.626, yplus min: 0.0163288 
position of yplus max: -11.9995 -1.29373 2.03858 
yplus prom: 2.81506 
forces: 2707.940818 0.114485 -852.886242 
Drag coefficient: 0.755652 
torque (ref. CG): -0.160278 (roll) -1411.488930 (pitch) -0.698356 (yaw) 
----------------------------------------------------- 
step 101, time 0.050500, maxvel 30.000000, total vol 183256, vol(u>maxvel) 6.53861, cell count 1285212
bounding box (containing cells with vel>maxvel): xmin -12.2622 -1.72633 -0.498469, xmax 0.688116 1.72633 3.95555m 
bounding box of vehicle: xmin -12.2 -1.30017 -1.63055e-10, xmax 3.80148e-18 1.30017 3.6m 
gts area: 163.395 
yplus max: 117.625, yplus min: 0.0163347 
position of yplus max: -11.9995 -1.29373 2.03858 
yplus prom: 2.81417 
forces: 2702.542226 0.118672 -852.545245 
Drag coefficient: 0.754146 
torque (ref. CG): -0.166141 (roll) -1416.966877 (pitch) -0.723902 (yaw) 
----------------------------------------------------- 
step 102, time 0.051000, maxvel 30.000000, total vol 183256, vol(u>maxvel) 6.5277, cell count 1279251
bounding box (containing cells with vel>maxvel): xmin -12.2622 -1.72633 -0.498469, xmax 0.748258 1.72633 3.95555m 
bounding box of vehicle: xmin -12.2 -1.30017 -1.63055e-10, xmax 3.80148e-18 1.30017 3.6m 
gts area: 163.395 
yplus max: 117.623, yplus min: 0.0127289 
position of yplus max: -11.9995 -1.29373 2.03858 
yplus prom: 2.81327 
forces: 2697.197838 0.121374 -852.194914 
Drag coefficient: 0.752654 
torque (ref. CG): -0.169924 (roll) -1422.312001 (pitch) -0.740383 (yaw) 
----------------------------------------------------- 
step 103, time 0.051500, maxvel 30.000000, total vol 183256, vol(u>maxvel) 6.50673, cell count 1273374
bounding box (containing cells with vel>maxvel): xmin -12.2622 -1.72633 -0.498469, xmax 0.74956 1.72633 3.95554m 
bounding box of vehicle: xmin -12.2 -1.30017 -1.63055e-10, xmax 3.80148e-18 1.30017 3.6m 
gts area: 163.395 
yplus max: 117.621, yplus min: 0.0165497 
position of yplus max: -11.9995 -1.29373 2.03858 
yplus prom: 2.81235 
forces: 2691.900795 0.125710 -851.837809 
Drag coefficient: 0.751176 
torque (ref. CG): -0.175993 (roll) -1427.549520 (pitch) -0.766829 (yaw) 
----------------------------------------------------- 
step 104, time 0.052000, maxvel 30.000000, total vol 183256, vol(u>maxvel) 6.48316, cell count 1267896
bounding box (containing cells with vel>maxvel): xmin -12.2622 -1.72633 -0.498469, xmax 0.749725 1.72633 3.95493m 
bounding box of vehicle: xmin -12.2 -1.30017 -1.63055e-10, xmax 3.80148e-18 1.30017 3.6m 
gts area: 163.395 
yplus max: 117.62, yplus min: 0.0167512 
position of yplus max: -11.9995 -1.29373 2.03858 
yplus prom: 2.81143 
forces: 2686.649756 0.129140 -851.478092 
Drag coefficient: 0.749711 
torque (ref. CG): -0.180797 (roll) -1432.706701 (pitch) -0.787757 (yaw) 
----------------------------------------------------- 
step 105, time 0.052500, maxvel 30.000000, total vol 183256, vol(u>maxvel) 6.4538, cell count 1262175
bounding box (containing cells with vel>maxvel): xmin -12.2622 -1.72633 -0.498469, xmax 0.749807 1.72633 3.95493m 
bounding box of vehicle: xmin -12.2 -1.30017 -1.63055e-10, xmax 3.80148e-18 1.30017 3.6m 
gts area: 163.395 
yplus max: 117.618, yplus min: 0.0170099 
position of yplus max: -11.9995 -1.29373 2.03858 
yplus prom: 2.81049 
forces: 2681.435066 0.132673 -851.114591 
Drag coefficient: 0.748256 
torque (ref. CG): -0.185742 (roll) -1437.789911 (pitch) -0.809304 (yaw) 
----------------------------------------------------- 
step 106, time 0.053000, maxvel 30.000000, total vol 183256, vol(u>maxvel) 6.43254, cell count 1256838
bounding box (containing cells with vel>maxvel): xmin -12.2622 -1.72633 -0.498469, xmax 0.749897 1.72633 3.95473m 
bounding box of vehicle: xmin -12.2 -1.30017 -1.63055e-10, xmax 3.80148e-18 1.30017 3.6m 
gts area: 163.395 
yplus max: 117.617, yplus min: 0.017317 
position of yplus max: -11.9995 -1.29373 2.03858 
yplus prom: 2.80954 
forces: 2676.301503 0.137425 -850.749123 
Drag coefficient: 0.746823 
torque (ref. CG): -0.192394 (roll) -1442.747547 (pitch) -0.838290 (yaw) 
----------------------------------------------------- 
step 107, time 0.053500, maxvel 30.000000, total vol 183256, vol(u>maxvel) 6.41626, cell count 1251293
bounding box (containing cells with vel>maxvel): xmin -12.2622 -1.72633 -0.498469, xmax 0.749975 1.72633 3.95473m 
bounding box of vehicle: xmin -12.2 -1.30017 -1.63055e-10, xmax 3.80148e-18 1.30017 3.6m 
gts area: 163.395 
yplus max: 117.615, yplus min: 0.0176631 
position of yplus max: -11.9995 -1.29373 2.03858 
yplus prom: 2.80858 
forces: 2671.212173 0.138892 -850.457590 
Drag coefficient: 0.745403 
torque (ref. CG): -0.194449 (roll) -1448.094257 (pitch) -0.847243 (yaw) 
----------------------------------------------------- 
step 108, time 0.054000, maxvel 30.000000, total vol 183256, vol(u>maxvel) 6.39341, cell count 1245856
bounding box (containing cells with vel>maxvel): xmin -12.2622 -1.72626 -0.498469, xmax 0.750041 1.72626 3.95473m 
bounding box of vehicle: xmin -12.2 -1.30017 -1.63055e-10, xmax 3.80148e-18 1.30017 3.6m 
gts area: 163.395 
yplus max: 117.614, yplus min: 0.0180525 
position of yplus max: -11.9995 -1.29373 2.03858 
yplus prom: 2.80761 
forces: 2666.222151 0.142116 -850.041379 
Drag coefficient: 0.744011 
torque (ref. CG): -0.198963 (roll) -1452.541398 (pitch) -0.866909 (yaw) 
----------------------------------------------------- 
step 109, time 0.054500, maxvel 30.000000, total vol 183256, vol(u>maxvel) 6.37552, cell count 1240222
bounding box (containing cells with vel>maxvel): xmin -12.2622 -1.72626 -0.498469, xmax 0.750041 1.72626 3.95469m 
bounding box of vehicle: xmin -12.2 -1.30017 -1.63055e-10, xmax 3.80148e-18 1.30017 3.6m 
gts area: 163.395 
yplus max: 117.612, yplus min: 0.0184609 
position of yplus max: -11.9995 -1.29373 2.03858 
yplus prom: 2.80664 
forces: 2661.133841 0.156407 -849.683165 
Drag coefficient: 0.742591 
torque (ref. CG): -0.218970 (roll) -1457.479931 (pitch) -0.954086 (yaw) 
----------------------------------------------------- 
step 110, time 0.055000, maxvel 30.000000, total vol 183256, vol(u>maxvel) 6.36087, cell count 1234923
bounding box (containing cells with vel>maxvel): xmin -12.2622 -1.72626 -0.498469, xmax 0.750113 1.72626 3.8983m 
bounding box of vehicle: xmin -12.2 -1.30017 -1.63055e-10, xmax 3.80148e-18 1.30017 3.6m 
gts area: 163.395 
yplus max: 117.611, yplus min: 0.018901 
position of yplus max: -11.9995 -1.29373 2.03858 
yplus prom: 2.80566 
forces: 2656.291756 0.141864 -849.239003 
Drag coefficient: 0.741240 
torque (ref. CG): -0.198610 (roll) -1461.549460 (pitch) -0.865371 (yaw) 
----------------------------------------------------- 
step 111, time 0.055500, maxvel 30.000000, total vol 183256, vol(u>maxvel) 6.34732, cell count 1229560
bounding box (containing cells with vel>maxvel): xmin -12.2622 -1.72626 -0.498469, xmax 0.750113 1.72626 3.8983m 
bounding box of vehicle: xmin -12.2 -1.30017 -1.63055e-10, xmax 3.80148e-18 1.30017 3.6m 
gts area: 163.395 
yplus max: 117.61, yplus min: 0.019356 
position of yplus max: -11.9995 -1.29373 2.03858 
yplus prom: 2.80467 
forces: 2651.326832 0.153582 -848.957744 
Drag coefficient: 0.739854 
torque (ref. CG): -0.215015 (roll) -1466.784676 (pitch) -0.936852 (yaw) 
----------------------------------------------------- 
step 112, time 0.056000, maxvel 30.000000, total vol 183256, vol(u>maxvel) 6.33241, cell count 1224035
bounding box (containing cells with vel>maxvel): xmin -12.2622 -1.72626 -0.498469, xmax 0.750178 1.72626 3.8983m 
bounding box of vehicle: xmin -12.2 -1.30017 -1.63055e-10, xmax 3.80148e-18 1.30017 3.6m 
gts area: 163.395 
yplus max: 117.608, yplus min: 0.0198253 
position of yplus max: -11.9995 -1.29373 2.03858 
yplus prom: 2.80369 
forces: 2646.485584 0.156648 -848.510143 
Drag coefficient: 0.738503 
torque (ref. CG): -0.219307 (roll) -1470.832053 (pitch) -0.955551 (yaw) 
----------------------------------------------------- 
step 113, time 0.056500, maxvel 30.000000, total vol 183256, vol(u>maxvel) 6.31644, cell count 1218601
bounding box (containing cells with vel>maxvel): xmin -12.2622 -1.72626 -0.498469, xmax 0.750178 1.72626 3.8983m 
bounding box of vehicle: xmin -12.2 -1.30017 -1.63055e-10, xmax 3.80148e-18 1.30017 3.6m 
gts area: 163.395 
yplus max: 117.607, yplus min: 0.0202761 
position of yplus max: -11.9995 -1.29373 2.03858 
yplus prom: 2.8027 
forces: 2641.669466 0.160755 -848.166104 
Drag coefficient: 0.737159 
torque (ref. CG): -0.225057 (roll) -1475.475981 (pitch) -0.980606 (yaw) 
----------------------------------------------------- 
step 114, time 0.057000, maxvel 30.000000, total vol 183256, vol(u>maxvel) 6.29668, cell count 1212884
bounding box (containing cells with vel>maxvel): xmin -12.2622 -1.72626 -0.498469, xmax 0.750245 1.72626 3.8983m 
bounding box of vehicle: xmin -12.2 -1.30017 -1.63055e-10, xmax 3.80148e-18 1.30017 3.6m 
gts area: 163.395 
yplus max: 117.606, yplus min: 0.0207345 
position of yplus max: -11.9995 -1.29373 2.03858 
yplus prom: 2.8017 
forces: 2636.900799 0.188038 -847.759881 
Drag coefficient: 0.735829 
torque (ref. CG): -0.263253 (roll) -1479.674156 (pitch) -1.147032 (yaw) 
----------------------------------------------------- 
step 115, time 0.057500, maxvel 30.000000, total vol 183256, vol(u>maxvel) 6.27784, cell count 1207541
bounding box (containing cells with vel>maxvel): xmin -12.2622 -1.72626 -0.498469, xmax 0.810462 1.72626 3.8983m 
bounding box of vehicle: xmin -12.2 -1.30017 -1.63055e-10, xmax 3.80148e-18 1.30017 3.6m 
gts area: 163.395 
yplus max: 117.604, yplus min: 0.0159226 
position of yplus max: -11.9995 -1.29373 2.03858 
yplus prom: 2.80071 
forces: 2632.243985 0.148763 -847.358447 
Drag coefficient: 0.734529 
torque (ref. CG): -0.208269 (roll) -1483.744947 (pitch) -0.907457 (yaw) 
----------------------------------------------------- 
step 116, time 0.058000, maxvel 30.000000, total vol 183256, vol(u>maxvel) 6.26318, cell count 1202850
bounding box (containing cells with vel>maxvel): xmin -12.2622 -1.72626 -0.498469, xmax 0.810525 1.72626 3.8983m 
bounding box of vehicle: xmin -12.2 -1.30017 -1.63055e-10, xmax 3.80148e-18 1.30017 3.6m 
gts area: 163.395 
yplus max: 117.603, yplus min: 0.0216714 
position of yplus max: -11.9995 -1.29373 2.03858 
yplus prom: 2.79972 
forces: 2627.455675 0.184315 -847.062674 
Drag coefficient: 0.733193 
torque (ref. CG): -0.258041 (roll) -1488.644368 (pitch) -1.124323 (yaw) 
----------------------------------------------------- 
step 117, time 0.058500, maxvel 30.000000, total vol 183256, vol(u>maxvel) 6.24678, cell count 1198268
bounding box (containing cells with vel>maxvel): xmin -12.2622 -1.72626 -0.498469, xmax 0.811697 1.72626 3.8983m 
bounding box of vehicle: xmin -12.2 -1.30017 -1.63055e-10, xmax 3.80148e-18 1.30017 3.6m 
gts area: 163.395 
yplus max: 117.602, yplus min: 0.0221422 
position of yplus max: -11.9995 -1.29373 2.03858 
yplus prom: 2.79873 
forces: 2622.915857 0.162120 -846.542906 
Drag coefficient: 0.731926 
torque (ref. CG): -0.226968 (roll) -1491.829524 (pitch) -0.988931 (yaw) 
----------------------------------------------------- 
step 118, time 0.059000, maxvel 30.000000, total vol 183256, vol(u>maxvel) 6.2288, cell count 1193791
bounding box (containing cells with vel>maxvel): xmin -12.2622 -1.72626 -0.498469, xmax 0.811873 1.72626 3.8983m 
bounding box of vehicle: xmin -12.2 -1.30017 -1.63055e-10, xmax 3.80148e-18 1.30017 3.6m 
gts area: 163.395 
yplus max: 117.601, yplus min: 0.0226236 
position of yplus max: -11.9995 -1.29373 2.03858 
yplus prom: 2.79774 
forces: 2618.227038 0.177501 -846.315684 
Drag coefficient: 0.730618 
torque (ref. CG): -0.248502 (roll) -1497.007818 (pitch) -1.082758 (yaw) 
----------------------------------------------------- 
step 119, time 0.059500, maxvel 30.000000, total vol 183256, vol(u>maxvel) 6.21872, cell count 1189902
bounding box (containing cells with vel>maxvel): xmin -12.2622 -1.72626 -0.498469, xmax 0.811968 1.72626 3.8983m 
bounding box of vehicle: xmin -12.2 -1.30017 -1.63055e-10, xmax 3.80148e-18 1.30017 3.6m 
gts area: 163.395 
yplus max: 117.599, yplus min: 0.0231055 
position of yplus max: -11.9995 -1.29373 2.03858 
yplus prom: 2.79676 
forces: 2613.717607 0.181287 -845.681905 
Drag coefficient: 0.729359 
torque (ref. CG): -0.253802 (roll) -1499.454970 (pitch) -1.105850 (yaw) 
----------------------------------------------------- 
step 120, time 0.060000, maxvel 30.000000, total vol 183256, vol(u>maxvel) 6.20889, cell count 1186052
bounding box (containing cells with vel>maxvel): xmin -12.2622 -1.72626 -0.498469, xmax 0.81206 1.72626 3.8983m 
bounding box of vehicle: xmin -12.2 -1.30017 -1.63055e-10, xmax 3.80148e-18 1.30017 3.6m 
gts area: 163.395 
yplus max: 117.598, yplus min: 0.023583 
position of yplus max: -11.9995 -1.29373 2.03858 
yplus prom: 2.79578 
forces: 2609.119102 0.186046 -845.527291 
Drag coefficient: 0.728076 
torque (ref. CG): -0.260464 (roll) -1504.949732 (pitch) -1.134878 (yaw) 
----------------------------------------------------- 
step 121, time 0.060500, maxvel 30.000000, total vol 183256, vol(u>maxvel) 6.19379, cell count 1182259
bounding box (containing cells with vel>maxvel): xmin -12.2622 -1.72626 -0.498469, xmax 0.81206 1.72626 3.8983m 
bounding box of vehicle: xmin -12.2 -1.30017 -1.63055e-10, xmax 3.80148e-18 1.30017 3.6m 
gts area: 163.395 
yplus max: 117.597, yplus min: 0.0240697 
position of yplus max: -11.9995 -1.29373 2.03858 
yplus prom: 2.7948 
forces: 2604.656898 0.207537 -844.885648 
Drag coefficient: 0.726831 
torque (ref. CG): -0.290552 (roll) -1507.282794 (pitch) -1.265975 (yaw) 
----------------------------------------------------- 
step 122, time 0.061000, maxvel 30.000000, total vol 183256, vol(u>maxvel) 6.17774, cell count 1178633
bounding box (containing cells with vel>maxvel): xmin -12.2622 -1.72626 -0.498469, xmax 0.812144 1.72626 3.8983m 
bounding box of vehicle: xmin -12.2 -1.30017 -1.63055e-10, xmax 3.80148e-18 1.30017 3.6m 
gts area: 163.395 
yplus max: 117.596, yplus min: 0.0245432 
position of yplus max: -11.9995 -1.29373 2.03858 
yplus prom: 2.79383 
forces: 2600.180556 0.189843 -844.579364 
Drag coefficient: 0.725582 
torque (ref. CG): -0.265780 (roll) -1511.681344 (pitch) -1.158043 (yaw) 
----------------------------------------------------- 
step 123, time 0.061500, maxvel 30.000000, total vol 183256, vol(u>maxvel) 6.15417, cell count 1174864
bounding box (containing cells with vel>maxvel): xmin -12.2622 -1.72626 -0.498469, xmax 0.812144 1.72626 3.8983m 
bounding box of vehicle: xmin -12.2 -1.30017 -1.63055e-10, xmax 3.80148e-18 1.30017 3.6m 
gts area: 163.395 
yplus max: 117.595, yplus min: 0.0250232 
position of yplus max: -11.9995 -1.29373 2.03858 
yplus prom: 2.79286 
forces: 2595.741768 0.184886 -844.303101 
Drag coefficient: 0.724343 
torque (ref. CG): -0.258841 (roll) -1516.210439 (pitch) -1.127806 (yaw) 
----------------------------------------------------- 
step 124, time 0.062000, maxvel 30.000000, total vol 183256, vol(u>maxvel) 6.13747, cell count 1170994
bounding box (containing cells with vel>maxvel): xmin -12.2622 -1.72626 -0.498469, xmax 0.812216 1.72626 3.8983m 
bounding box of vehicle: xmin -12.2 -1.30017 -1.63055e-10, xmax 3.80148e-18 1.30017 3.6m 
gts area: 163.395 
yplus max: 117.594, yplus min: 0.0255041 
position of yplus max: -11.9995 -1.29373 2.03858 
yplus prom: 2.7919 
[...]
bounding box (containing cells with vel>maxvel): xmin -12.2622 -1.72594 -0.498469, xmax -10.7366 1.72597 3.27654m 
bounding box of vehicle: xmin -12.2 -1.30017 -1.63055e-10, xmax 3.80148e-18 1.30017 3.6m 
gts area: 163.395 
yplus max: 117.342, yplus min: 0.0228311 
position of yplus max: -11.9995 -1.29373 2.03858 
yplus prom: 2.51921 
forces: 1231.044288 0.941561 -529.815675 
Drag coefficient: 0.343524 
torque (ref. CG): -1.318186 (roll) -1508.413614 (pitch) -5.743524 (yaw) 
----------------------------------------------------- 
step 1473, time 0.736500, maxvel 30.000000, total vol 183256, vol(u>maxvel) 2.06507, cell count 714721
bounding box (containing cells with vel>maxvel): xmin -12.2622 -1.72594 -0.498469, xmax -10.7366 1.72597 3.27654m 
bounding box of vehicle: xmin -12.2 -1.30017 -1.63055e-10, xmax 3.80148e-18 1.30017 3.6m 
gts area: 163.395 
yplus max: 117.342, yplus min: 0.0193566 
position of yplus max: -11.9995 -1.29373 2.03858 
yplus prom: 2.51918 
forces: 1230.713532 0.943199 -529.518450 
Drag coefficient: 0.343431 
torque (ref. CG): -1.320479 (roll) -1507.063602 (pitch) -5.753516 (yaw) 
----------------------------------------------------- 
step 1474, time 0.737000, maxvel 30.000000, total vol 183256, vol(u>maxvel) 2.06507, cell count 714721
bounding box (containing cells with vel>maxvel): xmin -12.2622 -1.72594 -0.498469, xmax -10.7366 1.72597 3.27654m 
bounding box of vehicle: xmin -12.2 -1.30017 -1.63055e-10, xmax 3.80148e-18 1.30017 3.6m 
gts area: 163.395 
yplus max: 117.342, yplus min: 0.0245469 
position of yplus max: -11.9995 -1.29373 2.03858 
yplus prom: 2.51916 
forces: 1230.397508 0.943938 -529.227172 
Drag coefficient: 0.343343 
torque (ref. CG): -1.321513 (roll) -1505.729237 (pitch) -5.758020 (yaw) 
----------------------------------------------------- 
step 1475, time 0.737500, maxvel 30.000000, total vol 183256, vol(u>maxvel) 2.06507, cell count 714722
bounding box (containing cells with vel>maxvel): xmin -12.2622 -1.72594 -0.498469, xmax -10.7366 1.72597 3.27654m 
bounding box of vehicle: xmin -12.2 -1.30017 -1.63055e-10, xmax 3.80148e-18 1.30017 3.6m 
gts area: 163.395 
yplus max: 117.342, yplus min: 0.0274523 
position of yplus max: -11.9995 -1.29373 2.03858 
yplus prom: 2.51914 
forces: 1230.065039 0.945134 -528.910072 
Drag coefficient: 0.343250 
torque (ref. CG): -1.323187 (roll) -1504.260387 (pitch) -5.765315 (yaw) 
----------------------------------------------------- 
step 1476, time 0.738000, maxvel 30.000000, total vol 183256, vol(u>maxvel) 2.06507, cell count 714723
bounding box (containing cells with vel>maxvel): xmin -12.2622 -1.72594 -0.498469, xmax -10.7366 1.72597 3.27654m 
bounding box of vehicle: xmin -12.2 -1.30017 -1.63055e-10, xmax 3.80148e-18 1.30017 3.6m 
gts area: 163.395 
yplus max: 117.342, yplus min: 0.0255765 
position of yplus max: -11.9995 -1.29373 2.03858 
yplus prom: 2.51912 
forces: 1229.747519 0.946026 -528.625753 
Drag coefficient: 0.343162 
torque (ref. CG): -1.324436 (roll) -1502.970565 (pitch) -5.770757 (yaw) 
----------------------------------------------------- 
step 1477, time 0.738500, maxvel 30.000000, total vol 183256, vol(u>maxvel) 2.06507, cell count 714723
bounding box (containing cells with vel>maxvel): xmin -12.2622 -1.72594 -0.498469, xmax -10.7366 1.72597 3.27654m 
bounding box of vehicle: xmin -12.2 -1.30017 -1.63055e-10, xmax 3.80148e-18 1.30017 3.6m 
gts area: 163.395 
yplus max: 117.342, yplus min: 0.0188589 
position of yplus max: -11.9995 -1.29373 2.03858 
yplus prom: 2.5191 
forces: 1229.426946 0.948779 -528.321776 
Drag coefficient: 0.343072 
torque (ref. CG): -1.328291 (roll) -1501.565109 (pitch) -5.787552 (yaw) 
----------------------------------------------------- 
step 1478, time 0.739000, maxvel 30.000000, total vol 183256, vol(u>maxvel) 2.0651, cell count 714724
bounding box (containing cells with vel>maxvel): xmin -12.2622 -1.72594 -0.498469, xmax -10.7366 1.72597 3.27654m 
bounding box of vehicle: xmin -12.2 -1.30017 -1.63055e-10, xmax 3.80148e-18 1.30017 3.6m 
gts area: 163.395 
yplus max: 117.342, yplus min: 0.0220402 
position of yplus max: -11.9995 -1.29373 2.03858 
yplus prom: 2.51908 
forces: 1229.111010 0.950053 -528.032560 
Drag coefficient: 0.342984 
torque (ref. CG): -1.330075 (roll) -1500.243201 (pitch) -5.795326 (yaw) 
----------------------------------------------------- 
step 1479, time 0.739500, maxvel 30.000000, total vol 183256, vol(u>maxvel) 2.0651, cell count 714723
bounding box (containing cells with vel>maxvel): xmin -12.2622 -1.72594 -0.498469, xmax -10.7366 1.72597 3.27654m 
bounding box of vehicle: xmin -12.2 -1.30017 -1.63055e-10, xmax 3.80148e-18 1.30017 3.6m 
gts area: 163.395 
yplus max: 117.342, yplus min: 0.0205562 
position of yplus max: -11.9995 -1.29373 2.03858 
yplus prom: 2.51906 
forces: 1228.792228 0.951320 -527.736212 
Drag coefficient: 0.342895 
torque (ref. CG): -1.331847 (roll) -1498.881770 (pitch) -5.803049 (yaw) 
----------------------------------------------------- 
step 1480, time 0.740000, maxvel 30.000000, total vol 183256, vol(u>maxvel) 2.06513, cell count 714724
bounding box (containing cells with vel>maxvel): xmin -12.2622 -1.72594 -0.498469, xmax -10.7366 1.72597 3.27654m 
bounding box of vehicle: xmin -12.2 -1.30017 -1.63055e-10, xmax 3.80148e-18 1.30017 3.6m 
gts area: 163.395 
yplus max: 117.342, yplus min: 0.0195165 
position of yplus max: -11.9995 -1.29373 2.03858 
yplus prom: 2.51903 
forces: 1228.476377 0.952847 -527.436362 
Drag coefficient: 0.342807 
torque (ref. CG): -1.333986 (roll) -1497.494878 (pitch) -5.812367 (yaw) 
----------------------------------------------------- 
step 1481, time 0.740500, maxvel 30.000000, total vol 183256, vol(u>maxvel) 2.06518, cell count 714725
bounding box (containing cells with vel>maxvel): xmin -12.2622 -1.72594 -0.498469, xmax -10.7366 1.72597 3.27654m 
bounding box of vehicle: xmin -12.2 -1.30017 -1.63055e-10, xmax 3.80148e-18 1.30017 3.6m 
gts area: 163.395 
yplus max: 117.342, yplus min: 0.0190523 
position of yplus max: -11.9995 -1.29373 2.03858 
yplus prom: 2.51901 
forces: 1228.160788 0.953359 -527.140705 
Drag coefficient: 0.342719 
torque (ref. CG): -1.334703 (roll) -1496.133196 (pitch) -5.815492 (yaw) 
----------------------------------------------------- 
step 1482, time 0.741000, maxvel 30.000000, total vol 183256, vol(u>maxvel) 2.06519, cell count 714727
bounding box (containing cells with vel>maxvel): xmin -12.2622 -1.72594 -0.498469, xmax -10.7366 1.72597 3.27654m 
bounding box of vehicle: xmin -12.2 -1.30017 -1.63055e-10, xmax 3.80148e-18 1.30017 3.6m 
gts area: 163.395 
yplus max: 117.342, yplus min: 0.0192463 
position of yplus max: -11.9995 -1.29373 2.03858 
yplus prom: 2.51899 
forces: 1227.844360 0.954806 -526.844132 
Drag coefficient: 0.342631 
torque (ref. CG): -1.336728 (roll) -1494.767101 (pitch) -5.824314 (yaw) 
----------------------------------------------------- 
step 1483, time 0.741500, maxvel 30.000000, total vol 183256, vol(u>maxvel) 2.06519, cell count 714727
bounding box (containing cells with vel>maxvel): xmin -12.2622 -1.72594 -0.498469, xmax -10.7366 1.72597 3.27654m 
bounding box of vehicle: xmin -12.2 -1.30017 -1.63055e-10, xmax 3.80148e-18 1.30017 3.6m 
gts area: 163.395 
yplus max: 117.342, yplus min: 0.00958441 
position of yplus max: -11.9995 -1.29373 2.03858 
yplus prom: 2.51897 
forces: 1227.531918 0.956780 -526.551200 
Drag coefficient: 0.342543 
torque (ref. CG): -1.339492 (roll) -1493.417635 (pitch) -5.836357 (yaw) 
----------------------------------------------------- 
step 1484, time 0.742000, maxvel 30.000000, total vol 183256, vol(u>maxvel) 2.06519, cell count 714727
bounding box (containing cells with vel>maxvel): xmin -12.2622 -1.72594 -0.498469, xmax -10.7366 1.72597 3.27654m 
bounding box of vehicle: xmin -12.2 -1.30017 -1.63055e-10, xmax 3.80148e-18 1.30017 3.6m 
gts area: 163.395 
yplus max: 117.342, yplus min: 0.0211223 
position of yplus max: -11.9995 -1.29373 2.03858 
yplus prom: 2.51895 
forces: 1227.219498 0.958077 -526.259008 
Drag coefficient: 0.342456 
torque (ref. CG): -1.341308 (roll) -1492.072653 (pitch) -5.844271 (yaw) 
----------------------------------------------------- 
step 1485, time 0.742500, maxvel 30.000000, total vol 183256, vol(u>maxvel) 2.06519, cell count 714728
bounding box (containing cells with vel>maxvel): xmin -12.2622 -1.72594 -0.498469, xmax -10.7366 1.72597 3.27654m 
bounding box of vehicle: xmin -12.2 -1.30017 -1.63055e-10, xmax 3.80148e-18 1.30017 3.6m 
gts area: 163.395 
yplus max: 117.342, yplus min: 0.0224023 
position of yplus max: -11.9995 -1.29373 2.03858 
yplus prom: 2.51893 
forces: 1226.907940 0.959550 -525.963563 
Drag coefficient: 0.342369 
torque (ref. CG): -1.343371 (roll) -1490.706620 (pitch) -5.853257 (yaw) 
----------------------------------------------------- 
step 1486, time 0.743000, maxvel 30.000000, total vol 183256, vol(u>maxvel) 2.06519, cell count 714728
bounding box (containing cells with vel>maxvel): xmin -12.2622 -1.72594 -0.498469, xmax -10.7366 1.72597 3.27654m 
bounding box of vehicle: xmin -12.2 -1.30017 -1.63055e-10, xmax 3.80148e-18 1.30017 3.6m 
gts area: 163.395 
yplus max: 117.342, yplus min: 0.0176548 
position of yplus max: -11.9995 -1.29373 2.03858 
yplus prom: 2.51891 
forces: 1226.596480 0.960337 -525.668057 
Drag coefficient: 0.342282 
torque (ref. CG): -1.344472 (roll) -1489.340076 (pitch) -5.858055 (yaw) 
----------------------------------------------------- 
step 1487, time 0.743500, maxvel 30.000000, total vol 183256, vol(u>maxvel) 2.06519, cell count 714728
bounding box (containing cells with vel>maxvel): xmin -12.2622 -1.72594 -0.498469, xmax -10.7366 1.72597 3.27654m 
bounding box of vehicle: xmin -12.2 -1.30017 -1.63055e-10, xmax 3.80148e-18 1.30017 3.6m 
gts area: 163.395 
yplus max: 117.342, yplus min: 0.0172826 
position of yplus max: -11.9995 -1.29373 2.03858 
yplus prom: 2.5189 
forces: 1226.286591 0.961946 -525.372050 
Drag coefficient: 0.342196 
torque (ref. CG): -1.346724 (roll) -1487.968279 (pitch) -5.867869 (yaw) 
----------------------------------------------------- 
step 1488, time 0.744000, maxvel 30.000000, total vol 183256, vol(u>maxvel) 2.06519, cell count 714730
bounding box (containing cells with vel>maxvel): xmin -12.2622 -1.72594 -0.498469, xmax -10.7366 1.72597 3.27654m 
bounding box of vehicle: xmin -12.2 -1.30017 -1.63055e-10, xmax 3.80148e-18 1.30017 3.6m 
gts area: 163.395 
yplus max: 117.343, yplus min: 0.0262779 
position of yplus max: -11.9995 -1.29373 2.03858 
yplus prom: 2.51888 
forces: 1225.979162 0.963922 -525.078504 
Drag coefficient: 0.342110 
torque (ref. CG): -1.349490 (roll) -1486.608045 (pitch) -5.879922 (yaw) 
----------------------------------------------------- 
step 1489, time 0.744500, maxvel 30.000000, total vol 183256, vol(u>maxvel) 2.06519, cell count 714731
bounding box (containing cells with vel>maxvel): xmin -12.2622 -1.72594 -0.498469, xmax -10.7366 1.72597 3.27654m 
bounding box of vehicle: xmin -12.2 -1.30017 -1.63055e-10, xmax 3.80148e-18 1.30017 3.6m 
gts area: 163.395 
yplus max: 117.343, yplus min: 0.0160917 
position of yplus max: -11.9995 -1.29373 2.03858 
yplus prom: 2.51886 
forces: 1225.675235 0.964601 -524.794609 
Drag coefficient: 0.342025 
torque (ref. CG): -1.350442 (roll) -1485.301788 (pitch) -5.884067 (yaw) 
----------------------------------------------------- 
step 1490, time 0.745000, maxvel 30.000000, total vol 183256, vol(u>maxvel) 2.06519, cell count 714732
bounding box (containing cells with vel>maxvel): xmin -12.2622 -1.72594 -0.498469, xmax -10.7366 1.72597 3.27654m 
bounding box of vehicle: xmin -12.2 -1.30017 -1.63055e-10, xmax 3.80148e-18 1.30017 3.6m 
gts area: 163.395 
yplus max: 117.343, yplus min: 0.0188809 
position of yplus max: -11.9995 -1.29373 2.03858 
yplus prom: 2.51884 
forces: 1225.368787 0.966445 -524.505242 
Drag coefficient: 0.341940 
torque (ref. CG): -1.353023 (roll) -1483.965672 (pitch) -5.895316 (yaw) 
----------------------------------------------------- 
step 1491, time 0.745500, maxvel 30.000000, total vol 183256, vol(u>maxvel) 2.06519, cell count 714732
bounding box (containing cells with vel>maxvel): xmin -12.2622 -1.72594 -0.498469, xmax -10.7366 1.72597 3.27654m 
bounding box of vehicle: xmin -12.2 -1.30017 -1.63055e-10, xmax 3.80148e-18 1.30017 3.6m 
gts area: 163.395 
yplus max: 117.343, yplus min: 0.0297048 
position of yplus max: -11.9995 -1.29373 2.03858 
yplus prom: 2.51882 
forces: 1225.062846 0.967578 -524.201655 
Drag coefficient: 0.341854 
torque (ref. CG): -1.354609 (roll) -1482.542109 (pitch) -5.902224 (yaw) 
----------------------------------------------------- 
step 1492, time 0.746000, maxvel 30.000000, total vol 183256, vol(u>maxvel) 2.06519, cell count 714732
bounding box (containing cells with vel>maxvel): xmin -12.2622 -1.72594 -0.498469, xmax -10.7366 1.72597 3.27654m 
bounding box of vehicle: xmin -12.2 -1.30017 -1.63055e-10, xmax 3.80148e-18 1.30017 3.6m 
gts area: 163.395 
yplus max: 117.343, yplus min: 0.0307165 
position of yplus max: -11.9995 -1.29373 2.03858 
yplus prom: 2.5188 
forces: 1224.755363 0.968368 -523.904845 
Drag coefficient: 0.341769 
torque (ref. CG): -1.355716 (roll) -1481.162044 (pitch) -5.907046 (yaw) 
----------------------------------------------------- 
step 1493, time 0.746500, maxvel 30.000000, total vol 183256, vol(u>maxvel) 2.06519, cell count 714733
bounding box (containing cells with vel>maxvel): xmin -12.2622 -1.72594 -0.498469, xmax -10.7366 1.72597 3.27654m 
bounding box of vehicle: xmin -12.2 -1.30017 -1.63055e-10, xmax 3.80148e-18 1.30017 3.6m 
gts area: 163.395 
yplus max: 117.343, yplus min: 0.03166 
position of yplus max: -11.9995 -1.29373 2.03858 
yplus prom: 2.51878 
forces: 1224.458713 0.969424 -523.630353 
Drag coefficient: 0.341686 
torque (ref. CG): -1.357193 (roll) -1479.902954 (pitch) -5.913485 (yaw) 
----------------------------------------------------- 
step 1494, time 0.747000, maxvel 30.000000, total vol 183256, vol(u>maxvel) 2.06519, cell count 714733
bounding box (containing cells with vel>maxvel): xmin -12.2622 -1.72594 -0.498469, xmax -10.7366 1.72597 3.27654m 
bounding box of vehicle: xmin -12.2 -1.30017 -1.63055e-10, xmax 3.80148e-18 1.30017 3.6m 
gts area: 163.395 
yplus max: 117.343, yplus min: 0.0325661 
position of yplus max: -11.9995 -1.29373 2.03858 
yplus prom: 2.51877 
forces: 1224.154535 0.972019 -523.326497 
Drag coefficient: 0.341601 
torque (ref. CG): -1.360827 (roll) -1478.475280 (pitch) -5.929316 (yaw) 
----------------------------------------------------- 
step 1495, time 0.747500, maxvel 30.000000, total vol 183256, vol(u>maxvel) 2.06522, cell count 714735
bounding box (containing cells with vel>maxvel): xmin -12.2622 -1.72594 -0.498469, xmax -10.7366 1.72597 3.27654m 
bounding box of vehicle: xmin -12.2 -1.30017 -1.63055e-10, xmax 3.80148e-18 1.30017 3.6m 
gts area: 163.395 
yplus max: 117.343, yplus min: 0.0334121 
position of yplus max: -11.9995 -1.29373 2.03858 
yplus prom: 2.51875 
forces: 1223.851034 0.972716 -523.030882 
Drag coefficient: 0.341516 
torque (ref. CG): -1.361802 (roll) -1477.096936 (pitch) -5.933566 (yaw) 
----------------------------------------------------- 
step 1496, time 0.748000, maxvel 30.000000, total vol 183256, vol(u>maxvel) 2.06522, cell count 714736
bounding box (containing cells with vel>maxvel): xmin -12.2622 -1.72594 -0.498469, xmax -10.7366 1.72597 3.27654m 
bounding box of vehicle: xmin -12.2 -1.30017 -1.63055e-10, xmax 3.80148e-18 1.30017 3.6m 
gts area: 163.395 
yplus max: 117.343, yplus min: 0.0263625 
position of yplus max: -11.9995 -1.29373 2.03858 
yplus prom: 2.51873 
forces: 1223.557183 0.974103 -522.757494 
Drag coefficient: 0.341434 
torque (ref. CG): -1.363744 (roll) -1475.840657 (pitch) -5.942027 (yaw) 
----------------------------------------------------- 
step 1497, time 0.748500, maxvel 30.000000, total vol 183256, vol(u>maxvel) 2.06522, cell count 714737
bounding box (containing cells with vel>maxvel): xmin -12.2622 -1.72594 -0.498469, xmax -10.7366 1.72597 3.27654m 
bounding box of vehicle: xmin -12.2 -1.30017 -1.63055e-10, xmax 3.80148e-18 1.30017 3.6m 
gts area: 163.395 
yplus max: 117.343, yplus min: 0.0349516 
position of yplus max: -11.9995 -1.29373 2.03858 
yplus prom: 2.51871 
forces: 1223.257566 0.976508 -522.464258 
Drag coefficient: 0.341351 
torque (ref. CG): -1.367111 (roll) -1474.471383 (pitch) -5.956699 (yaw) 
----------------------------------------------------- 

===================================================================================
=   BAD TERMINATION OF ONE OF YOUR APPLICATION PROCESSES
=   PID 61319 RUNNING AT compute-0-1
=   EXIT CODE: 1
=   CLEANING UP REMAINING PROCESSES
=   YOU CAN IGNORE THE BELOW CLEANUP MESSAGES
===================================================================================
[proxy:0:2@compute-0-3.local] HYD_pmcd_pmip_control_cmd_cb (pm/pmiserv/pmip_cb.c:909): assert (!closed) failed
[proxy:0:2@compute-0-3.local] HYDT_dmxu_poll_wait_for_event (tools/demux/demux_poll.c:76): callback returned error status
[proxy:0:2@compute-0-3.local] main (pm/pmiserv/pmip.c:206): demux engine error waiting for event
[proxy:0:3@compute-0-4.local] HYD_pmcd_pmip_control_cmd_cb (pm/pmiserv/pmip_cb.c:909): assert (!closed) failed
[proxy:0:3@compute-0-4.local] HYDT_dmxu_poll_wait_for_event (tools/demux/demux_poll.c:76): callback returned error status
[proxy:0:3@compute-0-4.local] main (pm/pmiserv/pmip.c:206): demux engine error waiting for event
[proxy:0:1@compute-0-2.local] HYD_pmcd_pmip_control_cmd_cb (pm/pmiserv/pmip_cb.c:909): assert (!closed) failed
[proxy:0:1@compute-0-2.local] HYDT_dmxu_poll_wait_for_event (tools/demux/demux_poll.c:76): callback returned error status
[proxy:0:1@compute-0-2.local] main (pm/pmiserv/pmip.c:206): demux engine error waiting for event
[proxy:0:4@compute-0-5.local] HYD_pmcd_pmip_control_cmd_cb (pm/pmiserv/pmip_cb.c:909): assert (!closed) failed
[proxy:0:4@compute-0-5.local] HYDT_dmxu_poll_wait_for_event (tools/demux/demux_poll.c:76): callback returned error status
[proxy:0:4@compute-0-5.local] main (pm/pmiserv/pmip.c:206): demux engine error waiting for event
[proxy:0:5@compute-0-6.local] HYD_pmcd_pmip_control_cmd_cb (pm/pmiserv/pmip_cb.c:909): assert (!closed) failed
[proxy:0:5@compute-0-6.local] HYDT_dmxu_poll_wait_for_event (tools/demux/demux_poll.c:76): callback returned error status
[proxy:0:5@compute-0-6.local] main (pm/pmiserv/pmip.c:206): demux engine error waiting for event
[proxy:0:6@compute-0-7.local] HYD_pmcd_pmip_control_cmd_cb (pm/pmiserv/pmip_cb.c:909): assert (!closed) failed
[proxy:0:6@compute-0-7.local] HYDT_dmxu_poll_wait_for_event (tools/demux/demux_poll.c:76): callback returned error status
[proxy:0:6@compute-0-7.local] main (pm/pmiserv/pmip.c:206): demux engine error waiting for event
srun: error: compute-0-7: task 6: Exited with exit code 7
srun: error: compute-0-6: task 5: Exited with exit code 7
srun: error: compute-0-5: task 4: Exited with exit code 7
srun: error: compute-0-4: task 3: Exited with exit code 7
srun: error: compute-0-2: task 1: Exited with exit code 7
srun: error: compute-0-3: task 2: Exited with exit code 7
[mpiexec@compute-0-1.local] HYDT_bscu_wait_for_completion (tools/bootstrap/utils/bscu_wait.c:76): one of the processes terminated badly; aborting
[mpiexec@compute-0-1.local] HYDT_bsci_wait_for_completion (tools/bootstrap/src/bsci_wait.c:23): launcher returned error waiting for completion
[mpiexec@compute-0-1.local] HYD_pmci_wait_for_completion (pm/pmiserv/pmiserv_pmci.c:218): launcher returned error waiting for completion
[mpiexec@compute-0-1.local] main (ui/mpich/mpiexec.c:344): process manager error waiting for completion
 solver script exited with status 255.

Error running the calculation.

Check Code_Saturne log (listing) and error* files for details.


 *****************************
  Post-calculation operations
 *****************************

 Error in calculation stage.

make: *** [run] Error 1
