/share/storage/pub/mstorti/saturne-vof/libexec/code_saturne/cs_preprocess --log 
--out mesh_input /share/storage/finzeo/GTS_Tunay_2/MESH/gtsconverted28_4.med 

  .------------------------------.
  |                              |
  |   Code_Saturne Preprocessor  |
  |                              |
  `------------------------------'

  code_saturne version 6.1-alpha   (built mar 25 ago 2020 16:47:33 ART)

  CGNS 3.4.0 file format support
  MED 3.2.0 (HDF5 1.8.14) file format support
  Reading of compressed files ('.gz') with Zlib 1.2.3



Case configuration
------------------

  Date                : mié 01 mar 2023 21:25:38 ART
  Processor           : Intel(R) Xeon(R) CPU E5-2650 v3 @ 2.30GHz
  Memory              : 132181124
  User                : finzeo ()
  Directory           : /share/storage/finzeo/GTS_Tunay_2/RESU/20230301-2125

  Case name           : preprocess
  Mesh file           : /share/storage/finzeo/GTS_Tunay_2/MESH/gtsconverted28_4.med



Reading mesh from file in MED (EDF/CEA) format
----------------------
  Mesh file: /share/storage/finzeo/GTS_Tunay_2/MESH/gtsconverted28_4.med


  Mesh name: gtsconverted28

  Number of vertices                          : 43559324
  Number of faces                             :  2262617
                                   Family 1   :    30444
                                   Family 2   :     3540
                                   Family 3   :     3540
                                   Family 4   :    62640
                                   Family 5   :    15480
                                   Family 6   :  2146973
  Number of cells                             : 40784828
                                   Family 0   : 40784828

  Wall-clock time: 16.025595 s; CPU time: 15.253681 s


Done reading mesh
-----------------
  Theoretical mesh size:                 3.247 Gb
  Theoretical current memory:            4.220 Gb
  Theoretical peak memory:               7.487 Gb
  Total memory used:                     7.652 Gb

  Domain coordinate extents:

  [-3.78000e+01, -1.80000e+01, -5.04000e-01]
  [ 1.17000e+02,  1.80000e+01,  3.24000e+01]
  Number of elements                    quad4 :  2211961
  Number of elements                  polygon :    50656
  Number of elements                   penta6 :   114507
  Number of elements                    hexa8 : 39145306
  Number of elements               polyhedron :  1525015



Defining families
-----------------


  Element orientation check.


Warning
=======
66 elements of type hexa8 are mis-oriented or highly warped


EnSight output of mesh: Orientation Error
-----------------------
  Creating file: preprocess.ensight/MESH.case
  Creating file: preprocess.ensight/mesh.geo

End of conversion to descending connectivity
--------------------------------------------
  Theoretical mesh size:                 7.296 Gb
  Theoretical current memory:            8.269 Gb
  Theoretical peak memory:              18.407 Gb
  Total memory used:                    18.689 Gb


Main mesh properties
--------------------

  Number of cells:                              40784828
  Number of internal faces:                    122836301
  Number of boundary faces:                      2262617
  Number of vertices:                           43559324


Definition of face and cell families
------------------------------------

  Family 1
         Group "frontAndBack"
  Number of boundary faces :    30444
  Family 2
         Group "gtsModel"
  Number of boundary faces :  2146973
  Family 3
         Group "inlet"
  Number of boundary faces :     3540
  Family 4
         Group "lowerWall"
  Number of boundary faces :    62640
  Family 5
         Group "outlet"
  Number of boundary faces :     3540
  Family 6
         Group "upperWall"
  Number of boundary faces :    15480
  Family 6
         Default family
         (no group)
  Number of cells          : 40784828
  Number of internal faces : 122836301


Write output for Kernel
-----------------------

  Opening file: mesh_input

  Wrote: "start_block:dimensions"
  Wrote: "n_cells"                         ; Type: "u8"; Size: 1
  Wrote: "n_faces"                         ; Type: "u8"; Size: 1
  Wrote: "n_vertices"                      ; Type: "u8"; Size: 1
  Wrote: "face_vertices_size"              ; Type: "u8"; Size: 1
  Wrote: "n_group_classes"                 ; Type: "i8"; Size: 1
  Wrote: "n_group_class_props_max"         ; Type: "i8"; Size: 1
  Wrote: "n_groups"                        ; Type: "u8"; Size: 1
  Wrote: "group_name_index"                ; Type: "i8"; Size: 7
  Wrote: "group_name"                      ; Type: "c "; Size: 55
  Wrote: "group_class_properties"          ; Type: "i8"; Size: 7
  Wrote: "end_block:dimensions"
  Wrote: "start_block:data"
  Wrote: "face_cells"                      ; Type: "i8"; Size: 250197836
  Wrote: "cell_group_class_id"             ; Type: "i8"; Size: 40784828
  Wrote: "face_group_class_id"             ; Type: "i8"; Size: 125098918
  Wrote: "face_vertices_index"             ; Type: "u8"; Size: 125098919
  Wrote: "face_vertices"                   ; Type: "i8"; Size: 502833850
  Wrote: "vertex_coords"                   ; Type: "r8"; Size: 130677972
  Wrote: "end_block:data"
  Wrote: "EOF"

  Closing file: mesh_input


Time and memory summary
-----------------------

  User CPU time                       (sec)   :       89.19
  System CPU time                     (sec)   :       19.30
  Total time                          (sec)   :      111.61
  Total CPU time / Total time                 :        0.97

Memory use summary:

  Total memory used:                                  18.689 Gb
  Theoretical instrumented dynamic memory:            18.407 Gb


  .-----------------------.
  |                       |
  |  Preprocessor finish  |
  |                       |
  `-----------------------'


