/share/storage/pub/mstorti/saturne-vof/libexec/code_saturne/cs_preprocess --log 
--out mesh_input /share/storage/finzeo/GTS_Tunay_2/MESH/gtsconverted25.med 

  .------------------------------.
  |                              |
  |   Code_Saturne Preprocessor  |
  |                              |
  `------------------------------'

  code_saturne version 6.1-alpha   (built mar 25 ago 2020 16:47:33 ART)

  CGNS 3.4.0 file format support
  MED 3.2.0 (HDF5 1.8.14) file format support
  Reading of compressed files ('.gz') with Zlib 1.2.3



Case configuration
------------------

  Date                : lun 22 ago 2022 17:44:55 ART
  Processor           : Intel(R) Xeon(R) CPU E5-2650 v3 @ 2.30GHz
  Memory              : 132181124
  User                : finzeo ()
  Directory           : /share/storage/finzeo/GTS_Tunay_2/RESU/20220822-1744

  Case name           : preprocess
  Mesh file           : /share/storage/finzeo/GTS_Tunay_2/MESH/gtsconverted25.med



Reading mesh from file in MED (EDF/CEA) format
----------------------
  Mesh file: /share/storage/finzeo/GTS_Tunay_2/MESH/gtsconverted25.med


  Mesh name: gtsconverted25

  Number of vertices                          : 77238138
  Number of faces                             :  3028614
                                   Family 1   :   160038
                                   Family 2   :     5580
                                   Family 3   :  2833638
                                   Family 4   :     1254
                                   Family 5   :     3024
                                   Family 6   :    25080
  Number of cells                             : 73776883
                                   Family 0   : 73776883

  Wall-clock time: 27.612931 s; CPU time: 27.042889 s


Done reading mesh
-----------------
  Theoretical mesh size:                 5.525 Gb
  Theoretical current memory:            7.252 Gb
  Theoretical peak memory:              13.678 Gb
  Total memory used:                    13.845 Gb

  Domain coordinate extents:

  [-3.78000e+01, -1.80000e+01, -5.04000e-01]
  [ 1.17000e+02,  1.80000e+01,  3.24000e+01]
  Number of elements                    tria3 :       23
  Number of elements                    quad4 :  2999827
  Number of elements                  polygon :    28764
  Number of elements                   penta6 :    77758
  Number of elements                    hexa8 : 72139052
  Number of elements               polyhedron :  1560073



Defining families
-----------------


  Element orientation check.


Warning
=======
4 elements of type quad4 are mis-oriented or highly warped

Warning
=======
166 elements of type hexa8 are mis-oriented or highly warped


EnSight output of mesh: Orientation Error
-----------------------
  Creating file: preprocess.ensight/MESH.case
  Creating file: preprocess.ensight/mesh.geo

End of conversion to descending connectivity
--------------------------------------------
  Theoretical mesh size:                13.108 Gb
  Theoretical current memory:           14.834 Gb
  Theoretical peak memory:              33.026 Gb
  Total memory used:                    33.420 Gb


Main mesh properties
--------------------

  Number of cells:                              73776883
  Number of internal faces:                    221747579
  Number of boundary faces:                      3028614
  Number of vertices:                           77238138


Definition of face and cell families
------------------------------------

  Family 1
         Group "gtsModel"
  Number of boundary faces :  2833638
  Family 2
         Group "inlet"
  Number of boundary faces :     1254
  Family 3
         Group "lateral"
  Number of boundary faces :    25080
  Family 4
         Group "lowerWallBB"
  Number of boundary faces :   160038
  Family 5
         Group "outlet"
  Number of boundary faces :     3024
  Family 6
         Group "upperWallBB"
  Number of boundary faces :     5580
  Family 6
         Default family
         (no group)
  Number of cells          : 73776883
  Number of internal faces : 221747579


Write output for Kernel
-----------------------

  Opening file: mesh_input

  Wrote: "start_block:dimensions"
  Wrote: "n_cells"                         ; Type: "u8"; Size: 1
  Wrote: "n_faces"                         ; Type: "u8"; Size: 1
  Wrote: "n_vertices"                      ; Type: "u8"; Size: 1
  Wrote: "face_vertices_size"              ; Type: "u8"; Size: 1
  Wrote: "n_group_classes"                 ; Type: "i8"; Size: 1
  Wrote: "n_group_class_props_max"         ; Type: "i8"; Size: 1
  Wrote: "n_groups"                        ; Type: "u8"; Size: 1
  Wrote: "group_name_index"                ; Type: "i8"; Size: 7
  Wrote: "group_name"                      ; Type: "c "; Size: 54
  Wrote: "group_class_properties"          ; Type: "i8"; Size: 7
  Wrote: "end_block:dimensions"
  Wrote: "start_block:data"
  Wrote: "face_cells"                      ; Type: "i8"; Size: 449552386
  Wrote: "cell_group_class_id"             ; Type: "i8"; Size: 73776883
  Wrote: "face_group_class_id"             ; Type: "i8"; Size: 224776193
  Wrote: "face_vertices_index"             ; Type: "u8"; Size: 224776194
  Wrote: "face_vertices"                   ; Type: "i8"; Size: 901818424
  Wrote: "vertex_coords"                   ; Type: "r8"; Size: 231714414
  Wrote: "end_block:data"
  Wrote: "EOF"

  Closing file: mesh_input


Time and memory summary
-----------------------

  User CPU time                       (sec)   :      156.69
  System CPU time                     (sec)   :       30.58
  Total time                          (sec)   :      193.29
  Total CPU time / Total time                 :        0.97

Memory use summary:

  Total memory used:                                  33.420 Gb
  Theoretical instrumented dynamic memory:            33.026 Gb


  .-----------------------.
  |                       |
  |  Preprocessor finish  |
  |                       |
  `-----------------------'


