Start run at Tue Aug 2 03:10:50 ART 2022
PYTHON_CS_XFLAGS=' -O0 -g3 -ggdb3 -I/usr/include/jsoncpp ' /share/storage/pub/mstorti/saturne-vof/bin/code_saturne  run --param setup.xml

The following have been reloaded with a version change:
  1) llvm/6.0.0 => llvm/3.4.2


The following have been reloaded with a version change:
  1) llvm/3.4.2 => llvm/6.0.0


                      Code_Saturne
                      ************

 Version:   6.1-alpha
 Path:      /share/storage/pub/mstorti/saturne-vof

 Result directory:
   /share/storage/finzeo/GTS_Tunay_2/RESU/20220802-0310


 ****************************************
  Compiling user subroutines and linking
 ****************************************


 ****************************
  Preparing calculation data
 ****************************

 Parallel Code_Saturne on 40 processes.


 ***************************
  Preprocessing calculation
 ***************************


 **********************
  Starting calculation
 **********************

Warning: Process to core binding is enabled and OMP_NUM_THREADS is set to non-zero (1) value
If your program has OpenMP sections, this can cause over-subscription of cores and consequently poor performance
To avoid this, please re-run your application after setting MV2_ENABLE_AFFINITY=0
Use MV2_USE_THREAD_WARNING=0 to suppress this message
step 1, time 0.001000, maxvel 2.000000, total vol 181461, vol(u>maxvel) 0, cell count 0
bounding box (containing cells with vel>maxvel): xmin inf inf inf, xmax -inf -inf -infm 
bounding box of vehicle: xmin -12.2 -1.30003 -2.05998e-17, xmax 9.54098e-18 1.30033 3.6m 
yplus max: 48.4504, yplus min: 0 
position of yplus max: -7.40311 0.775062 3.6 
yplus prom: 12.437 
----------------------------------------------------- 
step 2, time 0.002000, maxvel 2.000000, total vol 181461, vol(u>maxvel) 0, cell count 0
bounding box (containing cells with vel>maxvel): xmin inf inf inf, xmax -inf -inf -infm 
bounding box of vehicle: xmin -12.2 -1.30003 -2.05998e-17, xmax 9.54098e-18 1.30033 3.6m 
yplus max: 48.2121, yplus min: 1.79631 
position of yplus max: -12.1108 -0.922731 2.25661 
yplus prom: 8.55738 
----------------------------------------------------- 
step 3, time 0.003000, maxvel 2.000000, total vol 181461, vol(u>maxvel) 0, cell count 0
bounding box (containing cells with vel>maxvel): xmin inf inf inf, xmax -inf -inf -infm 
bounding box of vehicle: xmin -12.2 -1.30003 -2.05998e-17, xmax 9.54098e-18 1.30033 3.6m 
yplus max: 48.2869, yplus min: 1.74043 
position of yplus max: -12.1108 -0.922731 2.25661 
yplus prom: 8.65254 
----------------------------------------------------- 
step 4, time 0.004000, maxvel 2.000000, total vol 181461, vol(u>maxvel) 0, cell count 0
bounding box (containing cells with vel>maxvel): xmin inf inf inf, xmax -inf -inf -infm 
bounding box of vehicle: xmin -12.2 -1.30003 -2.05998e-17, xmax 9.54098e-18 1.30033 3.6m 
yplus max: 47.8582, yplus min: 1.41203 
position of yplus max: -12.1108 -0.922731 2.25661 
yplus prom: 8.6505 
----------------------------------------------------- 
step 5, time 0.005000, maxvel 2.000000, total vol 181461, vol(u>maxvel) 0, cell count 0
bounding box (containing cells with vel>maxvel): xmin inf inf inf, xmax -inf -inf -infm 
bounding box of vehicle: xmin -12.2 -1.30003 -2.05998e-17, xmax 9.54098e-18 1.30033 3.6m 
yplus max: 47.6572, yplus min: 1.33917 
position of yplus max: -12.1108 -0.922731 2.25661 
yplus prom: 8.65606 
----------------------------------------------------- 
step 6, time 0.006000, maxvel 2.000000, total vol 181461, vol(u>maxvel) 0, cell count 0
bounding box (containing cells with vel>maxvel): xmin inf inf inf, xmax -inf -inf -infm 
bounding box of vehicle: xmin -12.2 -1.30003 -2.05998e-17, xmax 9.54098e-18 1.30033 3.6m 
yplus max: 47.543, yplus min: 1.24475 
position of yplus max: -12.1108 -0.922731 2.25661 
yplus prom: 8.66279 
----------------------------------------------------- 
step 7, time 0.007000, maxvel 2.000000, total vol 181461, vol(u>maxvel) 0, cell count 0
bounding box (containing cells with vel>maxvel): xmin inf inf inf, xmax -inf -inf -infm 
bounding box of vehicle: xmin -12.2 -1.30003 -2.05998e-17, xmax 9.54098e-18 1.30033 3.6m 
yplus max: 47.4606, yplus min: 0.867177 
position of yplus max: -12.1108 -0.922731 2.25661 
yplus prom: 8.66962 
----------------------------------------------------- 
step 8, time 0.008000, maxvel 2.000000, total vol 181461, vol(u>maxvel) 0, cell count 0
bounding box (containing cells with vel>maxvel): xmin inf inf inf, xmax -inf -inf -infm 
bounding box of vehicle: xmin -12.2 -1.30003 -2.05998e-17, xmax 9.54098e-18 1.30033 3.6m 
yplus max: 47.3987, yplus min: 0.740272 
position of yplus max: -12.1108 -0.922731 2.25661 
yplus prom: 8.67649 
----------------------------------------------------- 
step 9, time 0.009000, maxvel 2.000000, total vol 181461, vol(u>maxvel) 0, cell count 0
bounding box (containing cells with vel>maxvel): xmin inf inf inf, xmax -inf -inf -infm 
bounding box of vehicle: xmin -12.2 -1.30003 -2.05998e-17, xmax 9.54098e-18 1.30033 3.6m 
yplus max: 47.3538, yplus min: 0.811956 
position of yplus max: -12.1108 -0.922731 2.25661 
yplus prom: 8.6834 
----------------------------------------------------- 
step 10, time 0.010000, maxvel 2.000000, total vol 181461, vol(u>maxvel) 0, cell count 0
bounding box (containing cells with vel>maxvel): xmin inf inf inf, xmax -inf -inf -infm 
bounding box of vehicle: xmin -12.2 -1.30003 -2.05998e-17, xmax 9.54098e-18 1.30033 3.6m 
yplus max: 47.323, yplus min: 0.629453 
position of yplus max: -12.1108 -0.922731 2.25661 
yplus prom: 8.69025 
----------------------------------------------------- 
step 11, time 0.011000, maxvel 2.000000, total vol 181461, vol(u>maxvel) 0, cell count 0
bounding box (containing cells with vel>maxvel): xmin inf inf inf, xmax -inf -inf -infm 
bounding box of vehicle: xmin -12.2 -1.30003 -2.05998e-17, xmax 9.54098e-18 1.30033 3.6m 
yplus max: 47.304, yplus min: 0.452307 
position of yplus max: -12.1108 -0.922731 2.25661 
yplus prom: 8.69702 
----------------------------------------------------- 
step 12, time 0.012000, maxvel 2.000000, total vol 181461, vol(u>maxvel) 0, cell count 0
bounding box (containing cells with vel>maxvel): xmin inf inf inf, xmax -inf -inf -infm 
bounding box of vehicle: xmin -12.2 -1.30003 -2.05998e-17, xmax 9.54098e-18 1.30033 3.6m 
yplus max: 47.2948, yplus min: 0.514343 
position of yplus max: -12.1108 -0.922731 2.25661 
yplus prom: 8.70384 
----------------------------------------------------- 
step 13, time 0.013000, maxvel 2.000000, total vol 181461, vol(u>maxvel) 0, cell count 0
bounding box (containing cells with vel>maxvel): xmin inf inf inf, xmax -inf -inf -infm 
bounding box of vehicle: xmin -12.2 -1.30003 -2.05998e-17, xmax 9.54098e-18 1.30033 3.6m 
yplus max: 47.2935, yplus min: 0.424895 
position of yplus max: -12.1108 -0.922731 2.25661 
yplus prom: 8.71072 
----------------------------------------------------- 
step 14, time 0.014000, maxvel 2.000000, total vol 181461, vol(u>maxvel) 0, cell count 0
bounding box (containing cells with vel>maxvel): xmin inf inf inf, xmax -inf -inf -infm 
bounding box of vehicle: xmin -12.2 -1.30003 -2.05998e-17, xmax 9.54098e-18 1.30033 3.6m 
yplus max: 47.2985, yplus min: 0.664799 
position of yplus max: -12.1108 -0.922731 2.25661 
yplus prom: 8.71752 
----------------------------------------------------- 
step 15, time 0.015000, maxvel 2.000000, total vol 181461, vol(u>maxvel) 0, cell count 0
bounding box (containing cells with vel>maxvel): xmin inf inf inf, xmax -inf -inf -infm 
bounding box of vehicle: xmin -12.2 -1.30003 -2.05998e-17, xmax 9.54098e-18 1.30033 3.6m 
yplus max: 47.3087, yplus min: 0.355267 
position of yplus max: -12.1108 -0.922731 2.25661 
yplus prom: 8.72434 
----------------------------------------------------- 
step 16, time 0.016000, maxvel 2.000000, total vol 181461, vol(u>maxvel) 0, cell count 0
bounding box (containing cells with vel>maxvel): xmin inf inf inf, xmax -inf -inf -infm 
bounding box of vehicle: xmin -12.2 -1.30003 -2.05998e-17, xmax 9.54098e-18 1.30033 3.6m 
yplus max: 47.3229, yplus min: 0.68698 
position of yplus max: -12.1108 -0.922731 2.25661 
yplus prom: 8.7327 
----------------------------------------------------- 
step 17, time 0.017000, maxvel 2.000000, total vol 181461, vol(u>maxvel) 0, cell count 0
bounding box (containing cells with vel>maxvel): xmin inf inf inf, xmax -inf -inf -infm 
bounding box of vehicle: xmin -12.2 -1.30003 -2.05998e-17, xmax 9.54098e-18 1.30033 3.6m 
yplus max: 47.3405, yplus min: 1.18185 
position of yplus max: -12.1108 -0.922731 2.25661 
yplus prom: 8.74191 
----------------------------------------------------- 
step 18, time 0.018000, maxvel 2.000000, total vol 181461, vol(u>maxvel) 0, cell count 0
bounding box (containing cells with vel>maxvel): xmin inf inf inf, xmax -inf -inf -infm 
bounding box of vehicle: xmin -12.2 -1.30003 -2.05998e-17, xmax 9.54098e-18 1.30033 3.6m 
yplus max: 47.3605, yplus min: 1.27288 
position of yplus max: -12.1108 -0.922731 2.25661 
yplus prom: 8.7509 
----------------------------------------------------- 
step 19, time 0.019000, maxvel 2.000000, total vol 181461, vol(u>maxvel) 0, cell count 0
bounding box (containing cells with vel>maxvel): xmin inf inf inf, xmax -inf -inf -infm 
bounding box of vehicle: xmin -12.2 -1.30003 -2.05998e-17, xmax 9.54098e-18 1.30033 3.6m 
yplus max: 47.3827, yplus min: 1.35667 
position of yplus max: -12.1108 -0.922731 2.25661 
yplus prom: 8.75969 
----------------------------------------------------- 
step 20, time 0.020000, maxvel 2.000000, total vol 181461, vol(u>maxvel) 0, cell count 0
bounding box (containing cells with vel>maxvel): xmin inf inf inf, xmax -inf -inf -infm 
bounding box of vehicle: xmin -12.2 -1.30003 -2.05998e-17, xmax 9.54098e-18 1.30033 3.6m 
yplus max: 47.4063, yplus min: 1.43455 
position of yplus max: -12.1108 -0.922731 2.25661 
yplus prom: 8.76829 
----------------------------------------------------- 
step 21, time 0.021000, maxvel 2.000000, total vol 181461, vol(u>maxvel) 0, cell count 0
bounding box (containing cells with vel>maxvel): xmin inf inf inf, xmax -inf -inf -infm 
bounding box of vehicle: xmin -12.2 -1.30003 -2.05998e-17, xmax 9.54098e-18 1.30033 3.6m 
yplus max: 47.4312, yplus min: 1.50749 
position of yplus max: -12.1108 -0.922731 2.25661 
yplus prom: 8.77673 
----------------------------------------------------- 
step 22, time 0.022000, maxvel 2.000000, total vol 181461, vol(u>maxvel) 0, cell count 0
bounding box (containing cells with vel>maxvel): xmin inf inf inf, xmax -inf -inf -infm 
bounding box of vehicle: xmin -12.2 -1.30003 -2.05998e-17, xmax 9.54098e-18 1.30033 3.6m 
yplus max: 47.4569, yplus min: 1.57624 
position of yplus max: -12.1108 -0.922731 2.25661 
yplus prom: 8.78502 
----------------------------------------------------- 
step 23, time 0.023000, maxvel 2.000000, total vol 181461, vol(u>maxvel) 0, cell count 0
bounding box (containing cells with vel>maxvel): xmin inf inf inf, xmax -inf -inf -infm 
bounding box of vehicle: xmin -12.2 -1.30003 -2.05998e-17, xmax 9.54098e-18 1.30033 3.6m 
yplus max: 47.4833, yplus min: 1.48599 
position of yplus max: -12.1108 -0.922731 2.25661 
yplus prom: 8.79317 
----------------------------------------------------- 
step 24, time 0.024000, maxvel 2.000000, total vol 181461, vol(u>maxvel) 0, cell count 0
bounding box (containing cells with vel>maxvel): xmin inf inf inf, xmax -inf -inf -infm 
bounding box of vehicle: xmin -12.2 -1.30003 -2.05998e-17, xmax 9.54098e-18 1.30033 3.6m 
yplus max: 47.5101, yplus min: 1.36462 
position of yplus max: -12.1108 -0.922731 2.25661 
yplus prom: 8.80119 
----------------------------------------------------- 
step 25, time 0.025000, maxvel 2.000000, total vol 181461, vol(u>maxvel) 0, cell count 0
bounding box (containing cells with vel>maxvel): xmin inf inf inf, xmax -inf -inf -infm 
bounding box of vehicle: xmin -12.2 -1.30003 -2.05998e-17, xmax 9.54098e-18 1.30033 3.6m 
yplus max: 47.5371, yplus min: 1.23288 
position of yplus max: -12.1108 -0.922731 2.25661 
yplus prom: 8.80907 
----------------------------------------------------- 
step 26, time 0.026000, maxvel 2.000000, total vol 181461, vol(u>maxvel) 0, cell count 0
bounding box (containing cells with vel>maxvel): xmin inf inf inf, xmax -inf -inf -infm 
bounding box of vehicle: xmin -12.2 -1.30003 -2.05998e-17, xmax 9.54098e-18 1.30033 3.6m 
yplus max: 47.5643, yplus min: 1.08712 
position of yplus max: -12.1108 -0.922731 2.25661 
yplus prom: 8.81684 
----------------------------------------------------- 
step 27, time 0.027000, maxvel 2.000000, total vol 181461, vol(u>maxvel) 0, cell count 0
bounding box (containing cells with vel>maxvel): xmin inf inf inf, xmax -inf -inf -infm 
bounding box of vehicle: xmin -12.2 -1.30003 -2.05998e-17, xmax 9.54098e-18 1.30033 3.6m 
yplus max: 47.5915, yplus min: 0.921128 
position of yplus max: -12.1108 -0.922731 2.25661 
yplus prom: 8.8245 
----------------------------------------------------- 
step 28, time 0.028000, maxvel 2.000000, total vol 181461, vol(u>maxvel) 0, cell count 0
bounding box (containing cells with vel>maxvel): xmin inf inf inf, xmax -inf -inf -infm 
bounding box of vehicle: xmin -12.2 -1.30003 -2.05998e-17, xmax 9.54098e-18 1.30033 3.6m 
yplus max: 47.6185, yplus min: 0.723249 
position of yplus max: -12.1108 -0.922731 2.25661 
yplus prom: 8.83204 
----------------------------------------------------- 
step 29, time 0.029000, maxvel 2.000000, total vol 181461, vol(u>maxvel) 0, cell count 0
bounding box (containing cells with vel>maxvel): xmin inf inf inf, xmax -inf -inf -infm 
bounding box of vehicle: xmin -12.2 -1.30003 -2.05998e-17, xmax 9.54098e-18 1.30033 3.6m 
yplus max: 47.6455, yplus min: 0.47716 
position of yplus max: -12.1108 -0.922731 2.25661 
yplus prom: 8.8395 
----------------------------------------------------- 
step 30, time 0.030000, maxvel 2.000000, total vol 181461, vol(u>maxvel) 0, cell count 0
bounding box (containing cells with vel>maxvel): xmin inf inf inf, xmax -inf -inf -infm 
bounding box of vehicle: xmin -12.2 -1.30003 -2.05998e-17, xmax 9.54098e-18 1.30033 3.6m 
yplus max: 47.6722, yplus min: 0.377853 
position of yplus max: -12.1108 -0.922731 2.25661 
yplus prom: 8.84689 
----------------------------------------------------- 
step 31, time 0.031000, maxvel 2.000000, total vol 181461, vol(u>maxvel) 0, cell count 0
bounding box (containing cells with vel>maxvel): xmin inf inf inf, xmax -inf -inf -infm 
bounding box of vehicle: xmin -12.2 -1.30003 -2.05998e-17, xmax 9.54098e-18 1.30033 3.6m 
yplus max: 47.6987, yplus min: 0.2432 
position of yplus max: -12.1108 -0.922731 2.25661 
yplus prom: 8.85432 
----------------------------------------------------- 
step 32, time 0.032000, maxvel 2.000000, total vol 181461, vol(u>maxvel) 0, cell count 0
bounding box (containing cells with vel>maxvel): xmin inf inf inf, xmax -inf -inf -infm 
bounding box of vehicle: xmin -12.2 -1.30003 -2.05998e-17, xmax 9.54098e-18 1.30033 3.6m 
yplus max: 47.7248, yplus min: 0.497541 
position of yplus max: -12.1108 -0.922731 2.25661 
yplus prom: 8.86178 
----------------------------------------------------- 
step 33, time 0.033000, maxvel 2.000000, total vol 181461, vol(u>maxvel) 0, cell count 0
bounding box (containing cells with vel>maxvel): xmin inf inf inf, xmax -inf -inf -infm 
bounding box of vehicle: xmin -12.2 -1.30003 -2.05998e-17, xmax 9.54098e-18 1.30033 3.6m 
yplus max: 47.7507, yplus min: 0.728925 
position of yplus max: -12.1108 -0.922731 2.25661 
yplus prom: 8.86917 
----------------------------------------------------- 
step 34, time 0.034000, maxvel 2.000000, total vol 181461, vol(u>maxvel) 0, cell count 0
bounding box (containing cells with vel>maxvel): xmin inf inf inf, xmax -inf -inf -infm 
bounding box of vehicle: xmin -12.2 -1.30003 -2.05998e-17, xmax 9.54098e-18 1.30033 3.6m 
yplus max: 47.7761, yplus min: 0.902734 
position of yplus max: -12.1108 -0.922731 2.25661 
yplus prom: 8.87646 
----------------------------------------------------- 
step 35, time 0.035000, maxvel 2.000000, total vol 181461, vol(u>maxvel) 0, cell count 0
bounding box (containing cells with vel>maxvel): xmin inf inf inf, xmax -inf -inf -infm 
bounding box of vehicle: xmin -12.2 -1.30003 -2.05998e-17, xmax 9.54098e-18 1.30033 3.6m 
yplus max: 47.8012, yplus min: 1.04786 
position of yplus max: -12.1108 -0.922731 2.25661 
yplus prom: 8.88364 
----------------------------------------------------- 
step 36, time 0.036000, maxvel 2.000000, total vol 181461, vol(u>maxvel) 0, cell count 0
bounding box (containing cells with vel>maxvel): xmin inf inf inf, xmax -inf -inf -infm 
bounding box of vehicle: xmin -12.2 -1.30003 -2.05998e-17, xmax 9.54098e-18 1.30033 3.6m 
yplus max: 47.8259, yplus min: 1.15755 
position of yplus max: -12.1108 -0.922731 2.25661 
yplus prom: 8.89071 
----------------------------------------------------- 
step 37, time 0.037000, maxvel 2.000000, total vol 181461, vol(u>maxvel) 0, cell count 0
bounding box (containing cells with vel>maxvel): xmin inf inf inf, xmax -inf -inf -infm 
bounding box of vehicle: xmin -12.2 -1.30003 -2.05998e-17, xmax 9.54098e-18 1.30033 3.6m 
yplus max: 47.8502, yplus min: 1.02915 
position of yplus max: -12.1108 -0.922731 2.25661 
yplus prom: 8.89768 
----------------------------------------------------- 
step 38, time 0.038000, maxvel 2.000000, total vol 181461, vol(u>maxvel) 0, cell count 0
bounding box (containing cells with vel>maxvel): xmin inf inf inf, xmax -inf -inf -infm 
bounding box of vehicle: xmin -12.2 -1.30003 -2.05998e-17, xmax 9.54098e-18 1.30033 3.6m 
yplus max: 47.8741, yplus min: 0.924199 
position of yplus max: -12.1108 -0.922731 2.25661 
yplus prom: 8.90454 
----------------------------------------------------- 
step 39, time 0.039000, maxvel 2.000000, total vol 181461, vol(u>maxvel) 0, cell count 0
bounding box (containing cells with vel>maxvel): xmin inf inf inf, xmax -inf -inf -infm 
bounding box of vehicle: xmin -12.2 -1.30003 -2.05998e-17, xmax 9.54098e-18 1.30033 3.6m 
yplus max: 47.8976, yplus min: 0.879943 
position of yplus max: -12.1108 -0.922731 2.25661 
yplus prom: 8.91129 
----------------------------------------------------- 
step 40, time 0.040000, maxvel 2.000000, total vol 181461, vol(u>maxvel) 0, cell count 0
bounding box (containing cells with vel>maxvel): xmin inf inf inf, xmax -inf -inf -infm 
bounding box of vehicle: xmin -12.2 -1.30003 -2.05998e-17, xmax 9.54098e-18 1.30033 3.6m 
yplus max: 47.9206, yplus min: 0.919292 
position of yplus max: -12.1108 -0.922731 2.25661 
yplus prom: 8.91793 
----------------------------------------------------- 
step 41, time 0.041000, maxvel 2.000000, total vol 181461, vol(u>maxvel) 0, cell count 0
bounding box (containing cells with vel>maxvel): xmin inf inf inf, xmax -inf -inf -infm 
bounding box of vehicle: xmin -12.2 -1.30003 -2.05998e-17, xmax 9.54098e-18 1.30033 3.6m 
yplus max: 47.9432, yplus min: 1.01403 
position of yplus max: -12.1108 -0.922731 2.25661 
yplus prom: 8.92447 
----------------------------------------------------- 
step 42, time 0.042000, maxvel 2.000000, total vol 181461, vol(u>maxvel) 0, cell count 0
bounding box (containing cells with vel>maxvel): xmin inf inf inf, xmax -inf -inf -infm 
bounding box of vehicle: xmin -12.2 -1.30003 -2.05998e-17, xmax 9.54098e-18 1.30033 3.6m 
yplus max: 47.9654, yplus min: 0.999148 
position of yplus max: -12.1108 -0.922731 2.25661 
yplus prom: 8.9309 
----------------------------------------------------- 
step 43, time 0.043000, maxvel 2.000000, total vol 181461, vol(u>maxvel) 0, cell count 0
bounding box (containing cells with vel>maxvel): xmin inf inf inf, xmax -inf -inf -infm 
bounding box of vehicle: xmin -12.2 -1.30003 -2.05998e-17, xmax 9.54098e-18 1.30033 3.6m 
yplus max: 47.9872, yplus min: 0.904543 
position of yplus max: -12.1108 -0.922731 2.25661 
yplus prom: 8.9372 
----------------------------------------------------- 
step 44, time 0.044000, maxvel 2.000000, total vol 181461, vol(u>maxvel) 0, cell count 0
bounding box (containing cells with vel>maxvel): xmin inf inf inf, xmax -inf -inf -infm 
bounding box of vehicle: xmin -12.2 -1.30003 -2.05998e-17, xmax 9.54098e-18 1.30033 3.6m 
yplus max: 48.0085, yplus min: 0.798551 
position of yplus max: -12.1108 -0.922731 2.25661 
yplus prom: 8.94338 
----------------------------------------------------- 
step 45, time 0.045000, maxvel 2.000000, total vol 181461, vol(u>maxvel) 0, cell count 0
bounding box (containing cells with vel>maxvel): xmin inf inf inf, xmax -inf -inf -infm 
bounding box of vehicle: xmin -12.2 -1.30003 -2.05998e-17, xmax 9.54098e-18 1.30033 3.6m 
yplus max: 48.0295, yplus min: 0.677825 
position of yplus max: -12.1108 -0.922731 2.25661 
yplus prom: 8.94943 
----------------------------------------------------- 
step 46, time 0.046000, maxvel 2.000000, total vol 181461, vol(u>maxvel) 0, cell count 0
bounding box (containing cells with vel>maxvel): xmin inf inf inf, xmax -inf -inf -infm 
bounding box of vehicle: xmin -12.2 -1.30003 -2.05998e-17, xmax 9.54098e-18 1.30033 3.6m 
yplus max: 48.05, yplus min: 0.541053 
position of yplus max: -12.1108 -0.922731 2.25661 
yplus prom: 8.95536 
----------------------------------------------------- 
step 47, time 0.047000, maxvel 2.000000, total vol 181461, vol(u>maxvel) 0, cell count 0
bounding box (containing cells with vel>maxvel): xmin inf inf inf, xmax -inf -inf -infm 
bounding box of vehicle: xmin -12.2 -1.30003 -2.05998e-17, xmax 9.54098e-18 1.30033 3.6m 
yplus max: 48.0701, yplus min: 0.427201 
position of yplus max: -12.1108 -0.922731 2.25661 
yplus prom: 8.96118 
----------------------------------------------------- 
step 48, time 0.048000, maxvel 2.000000, total vol 181461, vol(u>maxvel) 0, cell count 0
bounding box (containing cells with vel>maxvel): xmin inf inf inf, xmax -inf -inf -infm 
bounding box of vehicle: xmin -12.2 -1.30003 -2.05998e-17, xmax 9.54098e-18 1.30033 3.6m 
yplus max: 48.0898, yplus min: 0.48793 
position of yplus max: -12.1108 -0.922731 2.25661 
yplus prom: 8.96688 
----------------------------------------------------- 
step 49, time 0.049000, maxvel 2.000000, total vol 181461, vol(u>maxvel) 0, cell count 0
bounding box (containing cells with vel>maxvel): xmin inf inf inf, xmax -inf -inf -infm 
bounding box of vehicle: xmin -12.2 -1.30003 -2.05998e-17, xmax 9.54098e-18 1.30033 3.6m 
yplus max: 48.1091, yplus min: 0.63096 
position of yplus max: -12.1108 -0.922731 2.25661 
yplus prom: 8.97246 
----------------------------------------------------- 
step 50, time 0.050000, maxvel 2.000000, total vol 181461, vol(u>maxvel) 0, cell count 0
bounding box (containing cells with vel>maxvel): xmin inf inf inf, xmax -inf -inf -infm 
bounding box of vehicle: xmin -12.2 -1.30003 -2.05998e-17, xmax 9.54098e-18 1.30033 3.6m 
yplus max: 48.128, yplus min: 0.764355 
position of yplus max: -12.1108 -0.922731 2.25661 
yplus prom: 8.97793 
----------------------------------------------------- 
step 51, time 0.051000, maxvel 2.000000, total vol 181461, vol(u>maxvel) 0, cell count 0
bounding box (containing cells with vel>maxvel): xmin inf inf inf, xmax -inf -inf -infm 
bounding box of vehicle: xmin -12.2 -1.30003 -2.05998e-17, xmax 9.54098e-18 1.30033 3.6m 
yplus max: 48.1465, yplus min: 0.882931 
position of yplus max: -12.1108 -0.922731 2.25661 
yplus prom: 8.98329 
----------------------------------------------------- 
step 52, time 0.052000, maxvel 2.000000, total vol 181461, vol(u>maxvel) 0, cell count 0
bounding box (containing cells with vel>maxvel): xmin inf inf inf, xmax -inf -inf -infm 
bounding box of vehicle: xmin -12.2 -1.30003 -2.05998e-17, xmax 9.54098e-18 1.30033 3.6m 
yplus max: 48.1647, yplus min: 0.989872 
position of yplus max: -12.1108 -0.922731 2.25661 
yplus prom: 8.98854 
----------------------------------------------------- 
step 53, time 0.053000, maxvel 2.000000, total vol 181461, vol(u>maxvel) 0, cell count 0
bounding box (containing cells with vel>maxvel): xmin inf inf inf, xmax -inf -inf -infm 
bounding box of vehicle: xmin -12.2 -1.30003 -2.05998e-17, xmax 9.54098e-18 1.30033 3.6m 
yplus max: 48.1824, yplus min: 1.08792 
position of yplus max: -12.1108 -0.922731 2.25661 
yplus prom: 8.99367 
----------------------------------------------------- 
step 54, time 0.054000, maxvel 2.000000, total vol 181461, vol(u>maxvel) 0, cell count 0
bounding box (containing cells with vel>maxvel): xmin inf inf inf, xmax -inf -inf -infm 
bounding box of vehicle: xmin -12.2 -1.30003 -2.05998e-17, xmax 9.54098e-18 1.30033 3.6m 
yplus max: 48.1998, yplus min: 1.17899 
position of yplus max: -12.1108 -0.922731 2.25661 
yplus prom: 8.9987 
----------------------------------------------------- 
step 55, time 0.055000, maxvel 2.000000, total vol 181461, vol(u>maxvel) 0, cell count 0
bounding box (containing cells with vel>maxvel): xmin inf inf inf, xmax -inf -inf -infm 
bounding box of vehicle: xmin -12.2 -1.30003 -2.05998e-17, xmax 9.54098e-18 1.30033 3.6m 
yplus max: 48.2169, yplus min: 1.26446 
position of yplus max: -12.1108 -0.922731 2.25661 
yplus prom: 9.00363 
----------------------------------------------------- 
step 56, time 0.056000, maxvel 2.000000, total vol 181461, vol(u>maxvel) 0, cell count 0
bounding box (containing cells with vel>maxvel): xmin inf inf inf, xmax -inf -inf -infm 
bounding box of vehicle: xmin -12.2 -1.30003 -2.05998e-17, xmax 9.54098e-18 1.30033 3.6m 
yplus max: 48.2335, yplus min: 1.28289 
position of yplus max: -12.1108 -0.922731 2.25661 
yplus prom: 9.00845 
----------------------------------------------------- 
step 57, time 0.057000, maxvel 2.000000, total vol 181461, vol(u>maxvel) 0, cell count 0
bounding box (containing cells with vel>maxvel): xmin inf inf inf, xmax -inf -inf -infm 
bounding box of vehicle: xmin -12.2 -1.30003 -2.05998e-17, xmax 9.54098e-18 1.30033 3.6m 
yplus max: 48.2499, yplus min: 1.23043 
position of yplus max: -12.1108 -0.922731 2.25661 
yplus prom: 9.01317 
----------------------------------------------------- 
step 58, time 0.058000, maxvel 2.000000, total vol 181461, vol(u>maxvel) 0, cell count 0
bounding box (containing cells with vel>maxvel): xmin inf inf inf, xmax -inf -inf -infm 
bounding box of vehicle: xmin -12.2 -1.30003 -2.05998e-17, xmax 9.54098e-18 1.30033 3.6m 
yplus max: 48.2658, yplus min: 1.17478 
position of yplus max: -12.1108 -0.922731 2.25661 
yplus prom: 9.01779 
----------------------------------------------------- 
step 59, time 0.059000, maxvel 2.000000, total vol 181461, vol(u>maxvel) 0, cell count 0
bounding box (containing cells with vel>maxvel): xmin inf inf inf, xmax -inf -inf -infm 
bounding box of vehicle: xmin -12.2 -1.30003 -2.05998e-17, xmax 9.54098e-18 1.30033 3.6m 
yplus max: 48.2815, yplus min: 1.1155 
position of yplus max: -12.1108 -0.922731 2.25661 
yplus prom: 9.02231 
----------------------------------------------------- 
step 60, time 0.060000, maxvel 2.000000, total vol 181461, vol(u>maxvel) 0, cell count 0
bounding box (containing cells with vel>maxvel): xmin inf inf inf, xmax -inf -inf -infm 
bounding box of vehicle: xmin -12.2 -1.30003 -2.05998e-17, xmax 9.54098e-18 1.30033 3.6m 
yplus max: 48.2968, yplus min: 1.05205 
position of yplus max: -12.1108 -0.922731 2.25661 
yplus prom: 9.02674 
----------------------------------------------------- 
step 61, time 0.061000, maxvel 2.000000, total vol 181461, vol(u>maxvel) 0, cell count 0
bounding box (containing cells with vel>maxvel): xmin inf inf inf, xmax -inf -inf -infm 
bounding box of vehicle: xmin -12.2 -1.30003 -2.05998e-17, xmax 9.54098e-18 1.30033 3.6m 
yplus max: 48.3117, yplus min: 0.983675 
position of yplus max: -12.1108 -0.922731 2.25661 
yplus prom: 9.03107 
----------------------------------------------------- 
step 62, time 0.062000, maxvel 2.000000, total vol 181461, vol(u>maxvel) 0, cell count 0
bounding box (containing cells with vel>maxvel): xmin inf inf inf, xmax -inf -inf -infm 
bounding box of vehicle: xmin -12.2 -1.30003 -2.05998e-17, xmax 9.54098e-18 1.30033 3.6m 
yplus max: 48.3264, yplus min: 0.909381 
position of yplus max: -12.1108 -0.922731 2.25661 
yplus prom: 9.03532 
----------------------------------------------------- 
step 63, time 0.063000, maxvel 2.000000, total vol 181461, vol(u>maxvel) 0, cell count 0
bounding box (containing cells with vel>maxvel): xmin inf inf inf, xmax -inf -inf -infm 
bounding box of vehicle: xmin -12.2 -1.30003 -2.05998e-17, xmax 9.54098e-18 1.30033 3.6m 
yplus max: 48.3407, yplus min: 0.827741 
position of yplus max: -12.1108 -0.922731 2.25661 
yplus prom: 9.03948 
----------------------------------------------------- 
step 64, time 0.064000, maxvel 2.000000, total vol 181461, vol(u>maxvel) 0, cell count 0
bounding box (containing cells with vel>maxvel): xmin inf inf inf, xmax -inf -inf -infm 
bounding box of vehicle: xmin -12.2 -1.30003 -2.05998e-17, xmax 9.54098e-18 1.30033 3.6m 
yplus max: 48.3547, yplus min: 0.736646 
position of yplus max: -12.1108 -0.922731 2.25661 
yplus prom: 9.04355 
----------------------------------------------------- 
step 65, time 0.065000, maxvel 2.000000, total vol 181461, vol(u>maxvel) 0, cell count 0
bounding box (containing cells with vel>maxvel): xmin inf inf inf, xmax -inf -inf -infm 
bounding box of vehicle: xmin -12.2 -1.30003 -2.05998e-17, xmax 9.54098e-18 1.30033 3.6m 
yplus max: 48.3684, yplus min: 0.632908 
position of yplus max: -12.1108 -0.922731 2.25661 
yplus prom: 9.04753 
----------------------------------------------------- 
step 66, time 0.066000, maxvel 2.000000, total vol 181461, vol(u>maxvel) 0, cell count 0
bounding box (containing cells with vel>maxvel): xmin inf inf inf, xmax -inf -inf -infm 
bounding box of vehicle: xmin -12.2 -1.30003 -2.05998e-17, xmax 9.54098e-18 1.30033 3.6m 
yplus max: 48.3819, yplus min: 0.512271 
position of yplus max: -12.1108 -0.922731 2.25661 
yplus prom: 9.05143 
----------------------------------------------------- 
step 67, time 0.067000, maxvel 2.000000, total vol 181461, vol(u>maxvel) 0, cell count 0
bounding box (containing cells with vel>maxvel): xmin inf inf inf, xmax -inf -inf -infm 
bounding box of vehicle: xmin -12.2 -1.30003 -2.05998e-17, xmax 9.54098e-18 1.30033 3.6m 
yplus max: 48.395, yplus min: 0.381164 
position of yplus max: -12.1108 -0.922731 2.25661 
yplus prom: 9.05525 
----------------------------------------------------- 
step 68, time 0.068000, maxvel 2.000000, total vol 181461, vol(u>maxvel) 0, cell count 0
bounding box (containing cells with vel>maxvel): xmin inf inf inf, xmax -inf -inf -infm 
bounding box of vehicle: xmin -12.2 -1.30003 -2.05998e-17, xmax 9.54098e-18 1.30033 3.6m 
yplus max: 48.4078, yplus min: 0.369134 
position of yplus max: -12.1108 -0.922731 2.25661 
yplus prom: 9.059 
----------------------------------------------------- 
step 69, time 0.069000, maxvel 2.000000, total vol 181461, vol(u>maxvel) 0, cell count 0
bounding box (containing cells with vel>maxvel): xmin inf inf inf, xmax -inf -inf -infm 
bounding box of vehicle: xmin -12.2 -1.30003 -2.05998e-17, xmax 9.54098e-18 1.30033 3.6m 
yplus max: 48.4204, yplus min: 0.500148 
position of yplus max: -12.1108 -0.922731 2.25661 
yplus prom: 9.06267 
----------------------------------------------------- 
step 70, time 0.070000, maxvel 2.000000, total vol 181461, vol(u>maxvel) 0, cell count 0
bounding box (containing cells with vel>maxvel): xmin inf inf inf, xmax -inf -inf -infm 
bounding box of vehicle: xmin -12.2 -1.30003 -2.05998e-17, xmax 9.54098e-18 1.30033 3.6m 
yplus max: 48.4326, yplus min: 0.626864 
position of yplus max: -12.1108 -0.922731 2.25661 
yplus prom: 9.06626 
----------------------------------------------------- 
step 71, time 0.071000, maxvel 2.000000, total vol 181461, vol(u>maxvel) 0, cell count 0
bounding box (containing cells with vel>maxvel): xmin inf inf inf, xmax -inf -inf -infm 
bounding box of vehicle: xmin -12.2 -1.30003 -2.05998e-17, xmax 9.54098e-18 1.30033 3.6m 
yplus max: 48.4446, yplus min: 0.737184 
position of yplus max: -12.1108 -0.922731 2.25661 
yplus prom: 9.06978 
----------------------------------------------------- 
step 72, time 0.072000, maxvel 2.000000, total vol 181461, vol(u>maxvel) 0, cell count 0
bounding box (containing cells with vel>maxvel): xmin inf inf inf, xmax -inf -inf -infm 
bounding box of vehicle: xmin -12.2 -1.30003 -2.05998e-17, xmax 9.54098e-18 1.30033 3.6m 
yplus max: 48.4564, yplus min: 0.835161 
position of yplus max: -12.1108 -0.922731 2.25661 
yplus prom: 9.07323 
----------------------------------------------------- 
step 73, time 0.073000, maxvel 2.000000, total vol 181461, vol(u>maxvel) 0, cell count 0
bounding box (containing cells with vel>maxvel): xmin inf inf inf, xmax -inf -inf -infm 
bounding box of vehicle: xmin -12.2 -1.30003 -2.05998e-17, xmax 9.54098e-18 1.30033 3.6m 
yplus max: 48.4678, yplus min: 0.833657 
position of yplus max: -12.1108 -0.922731 2.25661 
yplus prom: 9.07661 
----------------------------------------------------- 
step 74, time 0.074000, maxvel 2.000000, total vol 181461, vol(u>maxvel) 0, cell count 0
bounding box (containing cells with vel>maxvel): xmin inf inf inf, xmax -inf -inf -infm 
bounding box of vehicle: xmin -12.2 -1.30003 -2.05998e-17, xmax 9.54098e-18 1.30033 3.6m 
yplus max: 48.4791, yplus min: 0.757484 
position of yplus max: -12.1108 -0.922731 2.25661 
yplus prom: 9.07993 
----------------------------------------------------- 
step 75, time 0.075000, maxvel 2.000000, total vol 181461, vol(u>maxvel) 0, cell count 0
bounding box (containing cells with vel>maxvel): xmin inf inf inf, xmax -inf -inf -infm 
bounding box of vehicle: xmin -12.2 -1.30003 -2.05998e-17, xmax 9.54098e-18 1.30033 3.6m 
yplus max: 48.49, yplus min: 0.654372 
position of yplus max: -12.1108 -0.922731 2.25661 
yplus prom: 9.08318 
----------------------------------------------------- 
step 76, time 0.076000, maxvel 2.000000, total vol 181461, vol(u>maxvel) 0, cell count 0
bounding box (containing cells with vel>maxvel): xmin inf inf inf, xmax -inf -inf -infm 
bounding box of vehicle: xmin -12.2 -1.30003 -2.05998e-17, xmax 9.54098e-18 1.30033 3.6m 
yplus max: 48.5007, yplus min: 0.544472 
position of yplus max: -12.1108 -0.922731 2.25661 
yplus prom: 9.08637 
----------------------------------------------------- 
step 77, time 0.077000, maxvel 2.000000, total vol 181461, vol(u>maxvel) 0, cell count 0
bounding box (containing cells with vel>maxvel): xmin inf inf inf, xmax -inf -inf -infm 
bounding box of vehicle: xmin -12.2 -1.30003 -2.05998e-17, xmax 9.54098e-18 1.30033 3.6m 
yplus max: 48.5112, yplus min: 0.530407 
position of yplus max: -12.1108 -0.922731 2.25661 
yplus prom: 9.08952 
----------------------------------------------------- 
step 78, time 0.078000, maxvel 2.000000, total vol 181461, vol(u>maxvel) 0, cell count 0
bounding box (containing cells with vel>maxvel): xmin inf inf inf, xmax -inf -inf -infm 
bounding box of vehicle: xmin -12.2 -1.30003 -2.05998e-17, xmax 9.54098e-18 1.30033 3.6m 
yplus max: 48.5215, yplus min: 0.634249 
position of yplus max: -12.1108 -0.922731 2.25661 
yplus prom: 9.09263 
----------------------------------------------------- 
step 79, time 0.079000, maxvel 2.000000, total vol 181461, vol(u>maxvel) 0, cell count 0
bounding box (containing cells with vel>maxvel): xmin inf inf inf, xmax -inf -inf -infm 
bounding box of vehicle: xmin -12.2 -1.30003 -2.05998e-17, xmax 9.54098e-18 1.30033 3.6m 
yplus max: 48.5315, yplus min: 0.717413 
position of yplus max: -12.1108 -0.922731 2.25661 
yplus prom: 9.09568 
----------------------------------------------------- 
step 80, time 0.080000, maxvel 2.000000, total vol 181461, vol(u>maxvel) 0, cell count 0
bounding box (containing cells with vel>maxvel): xmin inf inf inf, xmax -inf -inf -infm 
bounding box of vehicle: xmin -12.2 -1.30003 -2.05998e-17, xmax 9.54098e-18 1.30033 3.6m 
yplus max: 48.5412, yplus min: 0.793105 
position of yplus max: -12.1108 -0.922731 2.25661 
yplus prom: 9.09869 
----------------------------------------------------- 
step 81, time 0.081000, maxvel 2.000000, total vol 181461, vol(u>maxvel) 0, cell count 0
bounding box (containing cells with vel>maxvel): xmin inf inf inf, xmax -inf -inf -infm 
bounding box of vehicle: xmin -12.2 -1.30003 -2.05998e-17, xmax 9.54098e-18 1.30033 3.6m 
yplus max: 48.5508, yplus min: 0.868455 
position of yplus max: -12.1108 -0.922731 2.25661 
yplus prom: 9.10164 
----------------------------------------------------- 
step 82, time 0.082000, maxvel 2.000000, total vol 181461, vol(u>maxvel) 0, cell count 0
bounding box (containing cells with vel>maxvel): xmin inf inf inf, xmax -inf -inf -infm 
bounding box of vehicle: xmin -12.2 -1.30003 -2.05998e-17, xmax 9.54098e-18 1.30033 3.6m 
yplus max: 48.5601, yplus min: 0.938298 
position of yplus max: -12.1108 -0.922731 2.25661 
yplus prom: 9.10453 
----------------------------------------------------- 
step 83, time 0.083000, maxvel 2.000000, total vol 181461, vol(u>maxvel) 0, cell count 0
bounding box (containing cells with vel>maxvel): xmin inf inf inf, xmax -inf -inf -infm 
bounding box of vehicle: xmin -12.2 -1.30003 -2.05998e-17, xmax 9.54098e-18 1.30033 3.6m 
yplus max: 48.5692, yplus min: 1.00752 
position of yplus max: -12.1108 -0.922731 2.25661 
yplus prom: 9.10736 
----------------------------------------------------- 
step 84, time 0.084000, maxvel 2.000000, total vol 181461, vol(u>maxvel) 0, cell count 0
bounding box (containing cells with vel>maxvel): xmin inf inf inf, xmax -inf -inf -infm 
bounding box of vehicle: xmin -12.2 -1.30003 -2.05998e-17, xmax 9.54098e-18 1.30033 3.6m 
yplus max: 48.5781, yplus min: 1.0749 
position of yplus max: -12.1108 -0.922731 2.25661 
yplus prom: 9.11014 
----------------------------------------------------- 
step 85, time 0.085000, maxvel 2.000000, total vol 181461, vol(u>maxvel) 0, cell count 0
bounding box (containing cells with vel>maxvel): xmin inf inf inf, xmax -inf -inf -infm 
bounding box of vehicle: xmin -12.2 -1.30003 -2.05998e-17, xmax 9.54098e-18 1.30033 3.6m 
yplus max: 48.5868, yplus min: 1.14 
position of yplus max: -12.1108 -0.922731 2.25661 
yplus prom: 9.11286 
----------------------------------------------------- 
step 86, time 0.086000, maxvel 2.000000, total vol 181461, vol(u>maxvel) 0, cell count 0
bounding box (containing cells with vel>maxvel): xmin inf inf inf, xmax -inf -inf -infm 
bounding box of vehicle: xmin -12.2 -1.30003 -2.05998e-17, xmax 9.54098e-18 1.30033 3.6m 
yplus max: 48.5953, yplus min: 1.20273 
position of yplus max: -12.1108 -0.922731 2.25661 
yplus prom: 9.11553 
----------------------------------------------------- 
step 87, time 0.087000, maxvel 2.000000, total vol 181461, vol(u>maxvel) 0, cell count 0
bounding box (containing cells with vel>maxvel): xmin inf inf inf, xmax -inf -inf -infm 
bounding box of vehicle: xmin -12.2 -1.30003 -2.05998e-17, xmax 9.54098e-18 1.30033 3.6m 
yplus max: 48.6036, yplus min: 1.26317 
position of yplus max: -12.1108 -0.922731 2.25661 
yplus prom: 9.11815 
----------------------------------------------------- 
step 88, time 0.088000, maxvel 2.000000, total vol 181461, vol(u>maxvel) 0, cell count 0
bounding box (containing cells with vel>maxvel): xmin inf inf inf, xmax -inf -inf -infm 
bounding box of vehicle: xmin -12.2 -1.30003 -2.05998e-17, xmax 9.54098e-18 1.30033 3.6m 
yplus max: 48.6116, yplus min: 1.32145 
position of yplus max: -12.1108 -0.922731 2.25661 
yplus prom: 9.12071 
----------------------------------------------------- 
step 89, time 0.089000, maxvel 2.000000, total vol 181461, vol(u>maxvel) 0, cell count 0
bounding box (containing cells with vel>maxvel): xmin inf inf inf, xmax -inf -inf -infm 
bounding box of vehicle: xmin -12.2 -1.30003 -2.05998e-17, xmax 9.54098e-18 1.30033 3.6m 
yplus max: 48.6195, yplus min: 1.37772 
position of yplus max: -12.1108 -0.922731 2.25661 
yplus prom: 9.12323 
----------------------------------------------------- 
step 90, time 0.090000, maxvel 2.000000, total vol 181461, vol(u>maxvel) 0, cell count 0
bounding box (containing cells with vel>maxvel): xmin inf inf inf, xmax -inf -inf -infm 
bounding box of vehicle: xmin -12.2 -1.30003 -2.05998e-17, xmax 9.54098e-18 1.30033 3.6m 
yplus max: 48.6272, yplus min: 1.43214 
position of yplus max: -12.1108 -0.922731 2.25661 
yplus prom: 9.12569 
----------------------------------------------------- 
step 91, time 0.091000, maxvel 2.000000, total vol 181461, vol(u>maxvel) 0, cell count 0
bounding box (containing cells with vel>maxvel): xmin inf inf inf, xmax -inf -inf -infm 
bounding box of vehicle: xmin -12.2 -1.30003 -2.05998e-17, xmax 9.54098e-18 1.30033 3.6m 
yplus max: 48.6348, yplus min: 1.46391 
position of yplus max: -12.1108 -0.922731 2.25661 
yplus prom: 9.12809 
----------------------------------------------------- 
step 92, time 0.092000, maxvel 2.000000, total vol 181461, vol(u>maxvel) 0, cell count 0
bounding box (containing cells with vel>maxvel): xmin inf inf inf, xmax -inf -inf -infm 
bounding box of vehicle: xmin -12.2 -1.30003 -2.05998e-17, xmax 9.54098e-18 1.30033 3.6m 
yplus max: 48.6421, yplus min: 1.45895 
position of yplus max: -12.1108 -0.922731 2.25661 
yplus prom: 9.13045 
----------------------------------------------------- 
step 93, time 0.093000, maxvel 2.000000, total vol 181461, vol(u>maxvel) 0, cell count 0
bounding box (containing cells with vel>maxvel): xmin inf inf inf, xmax -inf -inf -infm 
bounding box of vehicle: xmin -12.2 -1.30003 -2.05998e-17, xmax 9.54098e-18 1.30033 3.6m 
yplus max: 48.6493, yplus min: 1.46546 
position of yplus max: -12.1108 -0.922731 2.25661 
yplus prom: 9.13276 
----------------------------------------------------- 
step 94, time 0.094000, maxvel 2.000000, total vol 181461, vol(u>maxvel) 0, cell count 0
bounding box (containing cells with vel>maxvel): xmin inf inf inf, xmax -inf -inf -infm 
bounding box of vehicle: xmin -12.2 -1.30003 -2.05998e-17, xmax 9.54098e-18 1.30033 3.6m 
yplus max: 48.6562, yplus min: 1.48287 
position of yplus max: -12.1108 -0.922731 2.25661 
yplus prom: 9.13502 
----------------------------------------------------- 
step 95, time 0.095000, maxvel 2.000000, total vol 181461, vol(u>maxvel) 0, cell count 0
bounding box (containing cells with vel>maxvel): xmin inf inf inf, xmax -inf -inf -infm 
bounding box of vehicle: xmin -12.2 -1.30003 -2.05998e-17, xmax 9.54098e-18 1.30033 3.6m 
yplus max: 48.663, yplus min: 1.50996 
position of yplus max: -12.1108 -0.922731 2.25661 
yplus prom: 9.13724 
----------------------------------------------------- 
step 96, time 0.096000, maxvel 2.000000, total vol 181461, vol(u>maxvel) 0, cell count 0
bounding box (containing cells with vel>maxvel): xmin inf inf inf, xmax -inf -inf -infm 
bounding box of vehicle: xmin -12.2 -1.30003 -2.05998e-17, xmax 9.54098e-18 1.30033 3.6m 
yplus max: 48.6697, yplus min: 1.54515 
position of yplus max: -12.1108 -0.922731 2.25661 
yplus prom: 9.1394 
----------------------------------------------------- 
step 97, time 0.097000, maxvel 2.000000, total vol 181461, vol(u>maxvel) 0, cell count 0
bounding box (containing cells with vel>maxvel): xmin inf inf inf, xmax -inf -inf -infm 
bounding box of vehicle: xmin -12.2 -1.30003 -2.05998e-17, xmax 9.54098e-18 1.30033 3.6m 
yplus max: 48.6762, yplus min: 1.55514 
position of yplus max: -12.1108 -0.922731 2.25661 
yplus prom: 9.14152 
----------------------------------------------------- 
step 98, time 0.098000, maxvel 2.000000, total vol 181461, vol(u>maxvel) 0, cell count 0
bounding box (containing cells with vel>maxvel): xmin inf inf inf, xmax -inf -inf -infm 
bounding box of vehicle: xmin -12.2 -1.30003 -2.05998e-17, xmax 9.54098e-18 1.30033 3.6m 
yplus max: 48.6825, yplus min: 1.55315 
position of yplus max: -12.1108 -0.922731 2.25661 
yplus prom: 9.1436 
----------------------------------------------------- 
step 99, time 0.099000, maxvel 2.000000, total vol 181461, vol(u>maxvel) 0, cell count 0
bounding box (containing cells with vel>maxvel): xmin inf inf inf, xmax -inf -inf -infm 
bounding box of vehicle: xmin -12.2 -1.30003 -2.05998e-17, xmax 9.54098e-18 1.30033 3.6m 
yplus max: 48.6887, yplus min: 1.55114 
position of yplus max: -12.1108 -0.922731 2.25661 
yplus prom: 9.14563 
----------------------------------------------------- 
step 100, time 0.100000, maxvel 2.000000, total vol 181461, vol(u>maxvel) 0, cell count 0
bounding box (containing cells with vel>maxvel): xmin inf inf inf, xmax -inf -inf -infm 
bounding box of vehicle: xmin -12.2 -1.30003 -2.05998e-17, xmax 9.54098e-18 1.30033 3.6m 
yplus max: 48.6947, yplus min: 1.54914 
position of yplus max: -12.1108 -0.922731 2.25661 
yplus prom: 9.14761 
----------------------------------------------------- 
step 101, time 0.101000, maxvel 2.000000, total vol 181461, vol(u>maxvel) 0, cell count 0
bounding box (containing cells with vel>maxvel): xmin inf inf inf, xmax -inf -inf -infm 
bounding box of vehicle: xmin -12.2 -1.30003 -2.05998e-17, xmax 9.54098e-18 1.30033 3.6m 
yplus max: 48.7005, yplus min: 1.54714 
position of yplus max: -12.1108 -0.922731 2.25661 
yplus prom: 9.14956 
----------------------------------------------------- 
step 102, time 0.102000, maxvel 2.000000, total vol 181461, vol(u>maxvel) 0, cell count 0
bounding box (containing cells with vel>maxvel): xmin inf inf inf, xmax -inf -inf -infm 
bounding box of vehicle: xmin -12.2 -1.30003 -2.05998e-17, xmax 9.54098e-18 1.30033 3.6m 
yplus max: 48.7062, yplus min: 1.54513 
position of yplus max: -12.1108 -0.922731 2.25661 
yplus prom: 9.15146 
----------------------------------------------------- 
step 103, time 0.103000, maxvel 2.000000, total vol 181461, vol(u>maxvel) 0, cell count 0
bounding box (containing cells with vel>maxvel): xmin inf inf inf, xmax -inf -inf -infm 
bounding box of vehicle: xmin -12.2 -1.30003 -2.05998e-17, xmax 9.54098e-18 1.30033 3.6m 
yplus max: 48.7118, yplus min: 1.54312 
position of yplus max: -12.1108 -0.922731 2.25661 
yplus prom: 9.15331 
----------------------------------------------------- 
step 104, time 0.104000, maxvel 2.000000, total vol 181461, vol(u>maxvel) 0, cell count 0
bounding box (containing cells with vel>maxvel): xmin inf inf inf, xmax -inf -inf -infm 
bounding box of vehicle: xmin -12.2 -1.30003 -2.05998e-17, xmax 9.54098e-18 1.30033 3.6m 
yplus max: 48.7172, yplus min: 1.54111 
position of yplus max: -12.1108 -0.922731 2.25661 
yplus prom: 9.15513 
----------------------------------------------------- 
step 105, time 0.105000, maxvel 2.000000, total vol 181461, vol(u>maxvel) 0, cell count 0
bounding box (containing cells with vel>maxvel): xmin inf inf inf, xmax -inf -inf -infm 
bounding box of vehicle: xmin -12.2 -1.30003 -2.05998e-17, xmax 9.54098e-18 1.30033 3.6m 
yplus max: 48.7225, yplus min: 1.5391 
position of yplus max: -12.1108 -0.922731 2.25661 
yplus prom: 9.1569 
----------------------------------------------------- 
step 106, time 0.106000, maxvel 2.000000, total vol 181461, vol(u>maxvel) 0, cell count 0
bounding box (containing cells with vel>maxvel): xmin inf inf inf, xmax -inf -inf -infm 
bounding box of vehicle: xmin -12.2 -1.30003 -2.05998e-17, xmax 9.54098e-18 1.30033 3.6m 
yplus max: 48.7276, yplus min: 1.53709 
position of yplus max: -12.1108 -0.922731 2.25661 
yplus prom: 9.15864 
----------------------------------------------------- 
step 107, time 0.107000, maxvel 2.000000, total vol 181461, vol(u>maxvel) 0, cell count 0
bounding box (containing cells with vel>maxvel): xmin inf inf inf, xmax -inf -inf -infm 
bounding box of vehicle: xmin -12.2 -1.30003 -2.05998e-17, xmax 9.54098e-18 1.30033 3.6m 
yplus max: 48.7327, yplus min: 1.53508 
position of yplus max: -12.1108 -0.922731 2.25661 
yplus prom: 9.16033 
----------------------------------------------------- 
step 108, time 0.108000, maxvel 2.000000, total vol 181461, vol(u>maxvel) 0, cell count 0
bounding box (containing cells with vel>maxvel): xmin inf inf inf, xmax -inf -inf -infm 
bounding box of vehicle: xmin -12.2 -1.30003 -2.05998e-17, xmax 9.54098e-18 1.30033 3.6m 
yplus max: 48.7375, yplus min: 1.53306 
position of yplus max: -12.1108 -0.922731 2.25661 
yplus prom: 9.16199 
----------------------------------------------------- 
step 109, time 0.109000, maxvel 2.000000, total vol 181461, vol(u>maxvel) 0, cell count 0
bounding box (containing cells with vel>maxvel): xmin inf inf inf, xmax -inf -inf -infm 
bounding box of vehicle: xmin -12.2 -1.30003 -2.05998e-17, xmax 9.54098e-18 1.30033 3.6m 
yplus max: 48.7423, yplus min: 1.53104 
position of yplus max: -12.1108 -0.922731 2.25661 
yplus prom: 9.1636 
----------------------------------------------------- 
step 110, time 0.110000, maxvel 2.000000, total vol 181461, vol(u>maxvel) 0, cell count 0
bounding box (containing cells with vel>maxvel): xmin inf inf inf, xmax -inf -inf -infm 
bounding box of vehicle: xmin -12.2 -1.30003 -2.05998e-17, xmax 9.54098e-18 1.30033 3.6m 
yplus max: 48.7469, yplus min: 1.52902 
position of yplus max: -12.1108 -0.922731 2.25661 
yplus prom: 9.16518 
----------------------------------------------------- 
step 111, time 0.111000, maxvel 2.000000, total vol 181461, vol(u>maxvel) 0, cell count 0
bounding box (containing cells with vel>maxvel): xmin inf inf inf, xmax -inf -inf -infm 
bounding box of vehicle: xmin -12.2 -1.30003 -2.05998e-17, xmax 9.54098e-18 1.30033 3.6m 
yplus max: 48.7514, yplus min: 1.51861 
position of yplus max: -12.1108 -0.922731 2.25661 
yplus prom: 9.16672 
----------------------------------------------------- 
step 112, time 0.112000, maxvel 2.000000, total vol 181461, vol(u>maxvel) 0, cell count 0
bounding box (containing cells with vel>maxvel): xmin inf inf inf, xmax -inf -inf -infm 
bounding box of vehicle: xmin -12.2 -1.30003 -2.05998e-17, xmax 9.54098e-18 1.30033 3.6m 
yplus max: 48.7558, yplus min: 1.48597 
position of yplus max: -12.1108 -0.922731 2.25661 
yplus prom: 9.16823 
----------------------------------------------------- 
step 113, time 0.113000, maxvel 2.000000, total vol 181461, vol(u>maxvel) 0, cell count 0
bounding box (containing cells with vel>maxvel): xmin inf inf inf, xmax -inf -inf -infm 
bounding box of vehicle: xmin -12.2 -1.30003 -2.05998e-17, xmax 9.54098e-18 1.30033 3.6m 
yplus max: 48.7601, yplus min: 1.45434 
position of yplus max: -12.1108 -0.922731 2.25661 
yplus prom: 9.16969 
----------------------------------------------------- 
step 114, time 0.114000, maxvel 2.000000, total vol 181461, vol(u>maxvel) 0, cell count 0
bounding box (containing cells with vel>maxvel): xmin inf inf inf, xmax -inf -inf -infm 
bounding box of vehicle: xmin -12.2 -1.30003 -2.05998e-17, xmax 9.54098e-18 1.30033 3.6m 
yplus max: 48.7642, yplus min: 1.42402 
position of yplus max: -12.1108 -0.922731 2.25661 
yplus prom: 9.17113 
----------------------------------------------------- 
step 115, time 0.115000, maxvel 2.000000, total vol 181461, vol(u>maxvel) 0, cell count 0
bounding box (containing cells with vel>maxvel): xmin inf inf inf, xmax -inf -inf -infm 
bounding box of vehicle: xmin -12.2 -1.30003 -2.05998e-17, xmax 9.54098e-18 1.30033 3.6m 
yplus max: 48.7683, yplus min: 1.39534 
position of yplus max: -12.1108 -0.922731 2.25661 
yplus prom: 9.17252 
----------------------------------------------------- 
step 116, time 0.116000, maxvel 2.000000, total vol 181461, vol(u>maxvel) 0, cell count 0
bounding box (containing cells with vel>maxvel): xmin inf inf inf, xmax -inf -inf -infm 
bounding box of vehicle: xmin -12.2 -1.30003 -2.05998e-17, xmax 9.54098e-18 1.30033 3.6m 
yplus max: 48.7722, yplus min: 1.3687 
position of yplus max: -12.1108 -0.922731 2.25661 
yplus prom: 9.17388 
----------------------------------------------------- 
step 117, time 0.117000, maxvel 2.000000, total vol 181461, vol(u>maxvel) 0, cell count 0
bounding box (containing cells with vel>maxvel): xmin inf inf inf, xmax -inf -inf -infm 
bounding box of vehicle: xmin -12.2 -1.30003 -2.05998e-17, xmax 9.54098e-18 1.30033 3.6m 
yplus max: 48.776, yplus min: 1.34451 
position of yplus max: -12.1108 -0.922731 2.25661 
yplus prom: 9.17521 
----------------------------------------------------- 
step 118, time 0.118000, maxvel 2.000000, total vol 181461, vol(u>maxvel) 0, cell count 0
bounding box (containing cells with vel>maxvel): xmin inf inf inf, xmax -inf -inf -infm 
bounding box of vehicle: xmin -12.2 -1.30003 -2.05998e-17, xmax 9.54098e-18 1.30033 3.6m 
yplus max: 48.7798, yplus min: 1.32321 
position of yplus max: -12.1108 -0.922731 2.25661 
yplus prom: 9.17651 
----------------------------------------------------- 
step 119, time 0.119000, maxvel 2.000000, total vol 181461, vol(u>maxvel) 0, cell count 0
bounding box (containing cells with vel>maxvel): xmin inf inf inf, xmax -inf -inf -infm 
bounding box of vehicle: xmin -12.2 -1.30003 -2.05998e-17, xmax 9.54098e-18 1.30033 3.6m 
yplus max: 48.7834, yplus min: 1.30525 
position of yplus max: -12.1108 -0.922731 2.25661 
yplus prom: 9.17777 
----------------------------------------------------- 
step 120, time 0.120000, maxvel 2.000000, total vol 181461, vol(u>maxvel) 0, cell count 0
bounding box (containing cells with vel>maxvel): xmin inf inf inf, xmax -inf -inf -infm 
bounding box of vehicle: xmin -12.2 -1.30003 -2.05998e-17, xmax 9.54098e-18 1.30033 3.6m 
yplus max: 48.7869, yplus min: 1.29105 
position of yplus max: -12.1108 -0.922731 2.25661 
yplus prom: 9.179 
----------------------------------------------------- 
step 121, time 0.121000, maxvel 2.000000, total vol 181461, vol(u>maxvel) 0, cell count 0
bounding box (containing cells with vel>maxvel): xmin inf inf inf, xmax -inf -inf -infm 
bounding box of vehicle: xmin -12.2 -1.30003 -2.05998e-17, xmax 9.54098e-18 1.30033 3.6m 
yplus max: 48.7903, yplus min: 1.28098 
position of yplus max: -12.1108 -0.922731 2.25661 
yplus prom: 9.18019 
----------------------------------------------------- 
step 122, time 0.122000, maxvel 2.000000, total vol 181461, vol(u>maxvel) 0, cell count 0
bounding box (containing cells with vel>maxvel): xmin inf inf inf, xmax -inf -inf -infm 
bounding box of vehicle: xmin -12.2 -1.30003 -2.05998e-17, xmax 9.54098e-18 1.30033 3.6m 
yplus max: 48.7936, yplus min: 1.27532 
position of yplus max: -12.1108 -0.922731 2.25661 
yplus prom: 9.18136 
----------------------------------------------------- 
step 123, time 0.123000, maxvel 2.000000, total vol 181461, vol(u>maxvel) 0, cell count 0
bounding box (containing cells with vel>maxvel): xmin inf inf inf, xmax -inf -inf -infm 
bounding box of vehicle: xmin -12.2 -1.30003 -2.05998e-17, xmax 9.54098e-18 1.30033 3.6m 
yplus max: 48.7969, yplus min: 1.27422 
position of yplus max: -12.1108 -0.922731 2.25661 
yplus prom: 9.18249 
----------------------------------------------------- 
step 124, time 0.124000, maxvel 2.000000, total vol 181461, vol(u>maxvel) 0, cell count 0
bounding box (containing cells with vel>maxvel): xmin inf inf inf, xmax -inf -inf -infm 
bounding box of vehicle: xmin -12.2 -1.30003 -2.05998e-17, xmax 9.54098e-18 1.30033 3.6m 
yplus max: 48.8, yplus min: 1.2777 
position of yplus max: -12.1108 -0.922731 2.25661 
yplus prom: 9.1836 
----------------------------------------------------- 
step 125, time 0.125000, maxvel 2.000000, total vol 181461, vol(u>maxvel) 0, cell count 0
bounding box (containing cells with vel>maxvel): xmin inf inf inf, xmax -inf -inf -infm 
bounding box of vehicle: xmin -12.2 -1.30003 -2.05998e-17, xmax 9.54098e-18 1.30033 3.6m 
yplus max: 48.8031, yplus min: 1.28562 
position of yplus max: -12.1108 -0.922731 2.25661 
yplus prom: 9.18467 
----------------------------------------------------- 
step 126, time 0.126000, maxvel 2.000000, total vol 181461, vol(u>maxvel) 0, cell count 0
bounding box (containing cells with vel>maxvel): xmin inf inf inf, xmax -inf -inf -infm 
bounding box of vehicle: xmin -12.2 -1.30003 -2.05998e-17, xmax 9.54098e-18 1.30033 3.6m 
yplus max: 48.806, yplus min: 1.29772 
position of yplus max: -12.1108 -0.922731 2.25661 
yplus prom: 9.18572 
----------------------------------------------------- 
step 127, time 0.127000, maxvel 2.000000, total vol 181461, vol(u>maxvel) 0, cell count 0
bounding box (containing cells with vel>maxvel): xmin inf inf inf, xmax -inf -inf -infm 
bounding box of vehicle: xmin -12.2 -1.30003 -2.05998e-17, xmax 9.54098e-18 1.30033 3.6m 
yplus max: 48.8089, yplus min: 1.31365 
position of yplus max: -12.1108 -0.922731 2.25661 
yplus prom: 9.18674 
----------------------------------------------------- 
step 128, time 0.128000, maxvel 2.000000, total vol 181461, vol(u>maxvel) 0, cell count 0
bounding box (containing cells with vel>maxvel): xmin inf inf inf, xmax -inf -inf -infm 
bounding box of vehicle: xmin -12.2 -1.30003 -2.05998e-17, xmax 9.54098e-18 1.30033 3.6m 
yplus max: 48.8117, yplus min: 1.33298 
position of yplus max: -12.1108 -0.922731 2.25661 
yplus prom: 9.18773 
----------------------------------------------------- 
step 129, time 0.129000, maxvel 2.000000, total vol 181461, vol(u>maxvel) 0, cell count 0
bounding box (containing cells with vel>maxvel): xmin inf inf inf, xmax -inf -inf -infm 
bounding box of vehicle: xmin -12.2 -1.30003 -2.05998e-17, xmax 9.54098e-18 1.30033 3.6m 
yplus max: 48.8144, yplus min: 1.29341 
position of yplus max: -12.1108 -0.922731 2.25661 
yplus prom: 9.18869 
----------------------------------------------------- 
step 130, time 0.130000, maxvel 2.000000, total vol 181461, vol(u>maxvel) 0, cell count 0
bounding box (containing cells with vel>maxvel): xmin inf inf inf, xmax -inf -inf -infm 
bounding box of vehicle: xmin -12.2 -1.30003 -2.05998e-17, xmax 9.54098e-18 1.30033 3.6m 
yplus max: 48.8171, yplus min: 1.2067 
position of yplus max: -12.1108 -0.922731 2.25661 
yplus prom: 9.18962 
----------------------------------------------------- 
step 131, time 0.131000, maxvel 2.000000, total vol 181461, vol(u>maxvel) 0, cell count 0
bounding box (containing cells with vel>maxvel): xmin inf inf inf, xmax -inf -inf -infm 
bounding box of vehicle: xmin -12.2 -1.30003 -2.05998e-17, xmax 9.54098e-18 1.30033 3.6m 
yplus max: 48.8196, yplus min: 1.11387 
position of yplus max: -12.1108 -0.922731 2.25661 
yplus prom: 9.19053 
----------------------------------------------------- 
step 132, time 0.132000, maxvel 2.000000, total vol 181461, vol(u>maxvel) 0, cell count 0
bounding box (containing cells with vel>maxvel): xmin inf inf inf, xmax -inf -inf -infm 
bounding box of vehicle: xmin -12.2 -1.30003 -2.05998e-17, xmax 9.54098e-18 1.30033 3.6m 
yplus max: 48.8221, yplus min: 1.01372 
position of yplus max: -12.1108 -0.922731 2.25661 
yplus prom: 9.19142 
----------------------------------------------------- 
step 133, time 0.133000, maxvel 2.000000, total vol 181461, vol(u>maxvel) 0, cell count 0
bounding box (containing cells with vel>maxvel): xmin inf inf inf, xmax -inf -inf -infm 
bounding box of vehicle: xmin -12.2 -1.30003 -2.05998e-17, xmax 9.54098e-18 1.30033 3.6m 
yplus max: 48.8245, yplus min: 0.904869 
position of yplus max: -12.1108 -0.922731 2.25661 
yplus prom: 9.19227 
----------------------------------------------------- 
step 134, time 0.134000, maxvel 2.000000, total vol 181461, vol(u>maxvel) 0, cell count 0
bounding box (containing cells with vel>maxvel): xmin inf inf inf, xmax -inf -inf -infm 
bounding box of vehicle: xmin -12.2 -1.30003 -2.05998e-17, xmax 9.54098e-18 1.30033 3.6m 
yplus max: 48.8269, yplus min: 0.786535 
position of yplus max: -12.1108 -0.922731 2.25661 
yplus prom: 9.19311 
----------------------------------------------------- 
step 135, time 0.135000, maxvel 2.000000, total vol 181461, vol(u>maxvel) 0, cell count 0
bounding box (containing cells with vel>maxvel): xmin inf inf inf, xmax -inf -inf -infm 
bounding box of vehicle: xmin -12.2 -1.30003 -2.05998e-17, xmax 9.54098e-18 1.30033 3.6m 
yplus max: 48.8291, yplus min: 0.662851 
position of yplus max: -12.1108 -0.922731 2.25661 
yplus prom: 9.19392 
----------------------------------------------------- 
step 136, time 0.136000, maxvel 2.000000, total vol 181461, vol(u>maxvel) 0, cell count 0
bounding box (containing cells with vel>maxvel): xmin inf inf inf, xmax -inf -inf -infm 
bounding box of vehicle: xmin -12.2 -1.30003 -2.05998e-17, xmax 9.54098e-18 1.30033 3.6m 
yplus max: 48.8313, yplus min: 0.564507 
position of yplus max: -12.1108 -0.922731 2.25661 
yplus prom: 9.19471 
----------------------------------------------------- 
step 137, time 0.137000, maxvel 2.000000, total vol 181461, vol(u>maxvel) 0, cell count 0
bounding box (containing cells with vel>maxvel): xmin inf inf inf, xmax -inf -inf -infm 
bounding box of vehicle: xmin -12.2 -1.30003 -2.05998e-17, xmax 9.54098e-18 1.30033 3.6m 
yplus max: 48.8335, yplus min: 0.573674 
position of yplus max: -12.1108 -0.922731 2.25661 
yplus prom: 9.19549 
----------------------------------------------------- 
step 138, time 0.138000, maxvel 2.000000, total vol 181461, vol(u>maxvel) 0, cell count 0
bounding box (containing cells with vel>maxvel): xmin inf inf inf, xmax -inf -inf -infm 
bounding box of vehicle: xmin -12.2 -1.30003 -2.05998e-17, xmax 9.54098e-18 1.30033 3.6m 
yplus max: 48.8356, yplus min: 0.679699 
position of yplus max: -12.1108 -0.922731 2.25661 
yplus prom: 9.19626 
----------------------------------------------------- 
step 139, time 0.139000, maxvel 2.000000, total vol 181461, vol(u>maxvel) 0, cell count 0
bounding box (containing cells with vel>maxvel): xmin inf inf inf, xmax -inf -inf -infm 
bounding box of vehicle: xmin -12.2 -1.30003 -2.05998e-17, xmax 9.54098e-18 1.30033 3.6m 
yplus max: 48.8376, yplus min: 0.803606 
position of yplus max: -12.1108 -0.922731 2.25661 
yplus prom: 9.19702 
----------------------------------------------------- 
step 140, time 0.140000, maxvel 2.000000, total vol 181461, vol(u>maxvel) 0, cell count 0
bounding box (containing cells with vel>maxvel): xmin inf inf inf, xmax -inf -inf -infm 
bounding box of vehicle: xmin -12.2 -1.30003 -2.05998e-17, xmax 9.54098e-18 1.30033 3.6m 
yplus max: 48.8616, yplus min: 0.85011 
position of yplus max: -11.9739 -1.28774 2.16477 
yplus prom: 9.19775 
----------------------------------------------------- 
step 141, time 0.141000, maxvel 2.000000, total vol 181461, vol(u>maxvel) 0, cell count 0
bounding box (containing cells with vel>maxvel): xmin inf inf inf, xmax -inf -inf -infm 
bounding box of vehicle: xmin -12.2 -1.30003 -2.05998e-17, xmax 9.54098e-18 1.30033 3.6m 
yplus max: 48.8878, yplus min: 0.839317 
position of yplus max: -11.9739 -1.28774 2.16477 
yplus prom: 9.19847 
----------------------------------------------------- 
step 142, time 0.142000, maxvel 2.000000, total vol 181461, vol(u>maxvel) 0, cell count 0
bounding box (containing cells with vel>maxvel): xmin inf inf inf, xmax -inf -inf -infm 
bounding box of vehicle: xmin -12.2 -1.30003 -2.05998e-17, xmax 9.54098e-18 1.30033 3.6m 
yplus max: 48.914, yplus min: 0.845452 
position of yplus max: -11.9739 -1.28774 2.16477 
yplus prom: 9.19917 
----------------------------------------------------- 
step 143, time 0.143000, maxvel 2.000000, total vol 181461, vol(u>maxvel) 0, cell count 0
bounding box (containing cells with vel>maxvel): xmin inf inf inf, xmax -inf -inf -infm 
bounding box of vehicle: xmin -12.2 -1.30003 -2.05998e-17, xmax 9.54098e-18 1.30033 3.6m 
yplus max: 48.94, yplus min: 0.867485 
position of yplus max: -11.9739 -1.28774 2.16477 
yplus prom: 9.19984 
----------------------------------------------------- 
step 144, time 0.144000, maxvel 2.000000, total vol 181461, vol(u>maxvel) 0, cell count 0
bounding box (containing cells with vel>maxvel): xmin inf inf inf, xmax -inf -inf -infm 
bounding box of vehicle: xmin -12.2 -1.30003 -2.05998e-17, xmax 9.54098e-18 1.30033 3.6m 
yplus max: 48.9659, yplus min: 0.902156 
position of yplus max: -11.9739 -1.28774 2.16477 
yplus prom: 9.2005 
----------------------------------------------------- 
step 145, time 0.145000, maxvel 2.000000, total vol 181461, vol(u>maxvel) 0, cell count 0
bounding box (containing cells with vel>maxvel): xmin inf inf inf, xmax -inf -inf -infm 
bounding box of vehicle: xmin -12.2 -1.30003 -2.05998e-17, xmax 9.54098e-18 1.30033 3.6m 
yplus max: 48.9918, yplus min: 0.939592 
position of yplus max: -11.9739 -1.28774 2.16477 
yplus prom: 9.20113 
----------------------------------------------------- 
step 146, time 0.146000, maxvel 2.000000, total vol 181461, vol(u>maxvel) 0, cell count 0
bounding box (containing cells with vel>maxvel): xmin inf inf inf, xmax -inf -inf -infm 
bounding box of vehicle: xmin -12.2 -1.30003 -2.05998e-17, xmax 9.54098e-18 1.30033 3.6m 
yplus max: 49.0175, yplus min: 0.879476 
position of yplus max: -11.9739 -1.28774 2.16477 
yplus prom: 9.20175 
----------------------------------------------------- 
step 147, time 0.147000, maxvel 2.000000, total vol 181461, vol(u>maxvel) 0, cell count 0
bounding box (containing cells with vel>maxvel): xmin inf inf inf, xmax -inf -inf -infm 
bounding box of vehicle: xmin -12.2 -1.30003 -2.05998e-17, xmax 9.54098e-18 1.30033 3.6m 
yplus max: 49.0432, yplus min: 0.831087 
position of yplus max: -11.9739 -1.28774 2.16477 
yplus prom: 9.20235 
----------------------------------------------------- 
step 148, time 0.148000, maxvel 2.000000, total vol 181461, vol(u>maxvel) 0, cell count 0
bounding box (containing cells with vel>maxvel): xmin inf inf inf, xmax -inf -inf -infm 
bounding box of vehicle: xmin -12.2 -1.30003 -2.05998e-17, xmax 9.54098e-18 1.30033 3.6m 
yplus max: 49.0688, yplus min: 0.803053 
position of yplus max: -11.9739 -1.28774 2.16477 
yplus prom: 9.20293 
----------------------------------------------------- 
step 149, time 0.149000, maxvel 2.000000, total vol 181461, vol(u>maxvel) 0, cell count 0
bounding box (containing cells with vel>maxvel): xmin inf inf inf, xmax -inf -inf -infm 
bounding box of vehicle: xmin -12.2 -1.30003 -2.05998e-17, xmax 9.54098e-18 1.30033 3.6m 
yplus max: 49.0942, yplus min: 0.802522 
position of yplus max: -11.9739 -1.28774 2.16477 
yplus prom: 9.20349 
----------------------------------------------------- 
step 150, time 0.150000, maxvel 2.000000, total vol 181461, vol(u>maxvel) 0, cell count 0
bounding box (containing cells with vel>maxvel): xmin inf inf inf, xmax -inf -inf -infm 
bounding box of vehicle: xmin -12.2 -1.30003 -2.05998e-17, xmax 9.54098e-18 1.30033 3.6m 
yplus max: 49.1196, yplus min: 0.829679 
position of yplus max: -11.9739 -1.28774 2.16477 
yplus prom: 9.20403 
----------------------------------------------------- 
step 151, time 0.151000, maxvel 2.000000, total vol 181461, vol(u>maxvel) 0, cell count 0
bounding box (containing cells with vel>maxvel): xmin inf inf inf, xmax -inf -inf -infm 
bounding box of vehicle: xmin -12.2 -1.30003 -2.05998e-17, xmax 9.54098e-18 1.30033 3.6m 
yplus max: 49.1449, yplus min: 0.877582 
position of yplus max: -11.9739 -1.28774 2.16477 
yplus prom: 9.20455 
----------------------------------------------------- 
step 152, time 0.152000, maxvel 2.000000, total vol 181461, vol(u>maxvel) 0, cell count 0
bounding box (containing cells with vel>maxvel): xmin inf inf inf, xmax -inf -inf -infm 
bounding box of vehicle: xmin -12.2 -1.30003 -2.05998e-17, xmax 9.54098e-18 1.30033 3.6m 
yplus max: 49.1701, yplus min: 0.937555 
position of yplus max: -11.9739 -1.28774 2.16477 
yplus prom: 9.20506 
----------------------------------------------------- 
step 153, time 0.153000, maxvel 2.000000, total vol 181461, vol(u>maxvel) 0, cell count 0
bounding box (containing cells with vel>maxvel): xmin inf inf inf, xmax -inf -inf -infm 
bounding box of vehicle: xmin -12.2 -1.30003 -2.05998e-17, xmax 9.54098e-18 1.30033 3.6m 
yplus max: 49.1952, yplus min: 1.00309 
position of yplus max: -11.9739 -1.28774 2.16477 
yplus prom: 9.20555 
----------------------------------------------------- 
step 154, time 0.154000, maxvel 2.000000, total vol 181461, vol(u>maxvel) 0, cell count 0
bounding box (containing cells with vel>maxvel): xmin inf inf inf, xmax -inf -inf -infm 
bounding box of vehicle: xmin -12.2 -1.30003 -2.05998e-17, xmax 9.54098e-18 1.30033 3.6m 
yplus max: 49.2201, yplus min: 1.07032 
position of yplus max: -11.9739 -1.28774 2.16477 
yplus prom: 9.20601 
----------------------------------------------------- 
step 155, time 0.155000, maxvel 2.000000, total vol 181461, vol(u>maxvel) 0, cell count 0
bounding box (containing cells with vel>maxvel): xmin inf inf inf, xmax -inf -inf -infm 
bounding box of vehicle: xmin -12.2 -1.30003 -2.05998e-17, xmax 9.54098e-18 1.30033 3.6m 
yplus max: 49.245, yplus min: 1.13722 
position of yplus max: -11.9739 -1.28774 2.16477 
yplus prom: 9.20646 
----------------------------------------------------- 
step 156, time 0.156000, maxvel 2.000000, total vol 181461, vol(u>maxvel) 0, cell count 0
bounding box (containing cells with vel>maxvel): xmin inf inf inf, xmax -inf -inf -infm 
bounding box of vehicle: xmin -12.2 -1.30003 -2.05998e-17, xmax 9.54098e-18 1.30033 3.6m 
yplus max: 49.2698, yplus min: 1.15282 
position of yplus max: -11.9739 -1.28774 2.16477 
yplus prom: 9.2069 
----------------------------------------------------- 
step 157, time 0.157000, maxvel 2.000000, total vol 181461, vol(u>maxvel) 0, cell count 0
bounding box (containing cells with vel>maxvel): xmin inf inf inf, xmax -inf -inf -infm 
bounding box of vehicle: xmin -12.2 -1.30003 -2.05998e-17, xmax 9.54098e-18 1.30033 3.6m 
yplus max: 49.2944, yplus min: 1.08513 
position of yplus max: -11.9739 -1.28774 2.16477 
yplus prom: 9.20731 
----------------------------------------------------- 
step 158, time 0.158000, maxvel 2.000000, total vol 181461, vol(u>maxvel) 0, cell count 0
bounding box (containing cells with vel>maxvel): xmin inf inf inf, xmax -inf -inf -infm 
bounding box of vehicle: xmin -12.2 -1.30003 -2.05998e-17, xmax 9.54098e-18 1.30033 3.6m 
yplus max: 49.319, yplus min: 1.01275 
position of yplus max: -11.9739 -1.28774 2.16477 
yplus prom: 9.2077 
----------------------------------------------------- 
step 159, time 0.159000, maxvel 2.000000, total vol 181461, vol(u>maxvel) 0, cell count 0
bounding box (containing cells with vel>maxvel): xmin inf inf inf, xmax -inf -inf -infm 
bounding box of vehicle: xmin -12.2 -1.30003 -2.05998e-17, xmax 9.54098e-18 1.30033 3.6m 
yplus max: 49.3434, yplus min: 0.935975 
position of yplus max: -11.9739 -1.28774 2.16477 
yplus prom: 9.20808 
----------------------------------------------------- 
step 160, time 0.160000, maxvel 2.000000, total vol 181461, vol(u>maxvel) 0, cell count 0
bounding box (containing cells with vel>maxvel): xmin inf inf inf, xmax -inf -inf -infm 
bounding box of vehicle: xmin -12.2 -1.30003 -2.05998e-17, xmax 9.54098e-18 1.30033 3.6m 
yplus max: 49.3678, yplus min: 0.855523 
position of yplus max: -11.9739 -1.28774 2.16477 
yplus prom: 9.20844 
----------------------------------------------------- 
step 161, time 0.161000, maxvel 2.000000, total vol 181461, vol(u>maxvel) 0, cell count 0
bounding box (containing cells with vel>maxvel): xmin inf inf inf, xmax -inf -inf -infm 
bounding box of vehicle: xmin -12.2 -1.30003 -2.05998e-17, xmax 9.54098e-18 1.30033 3.6m 
yplus max: 49.392, yplus min: 0.772223 
position of yplus max: -11.9739 -1.28774 2.16477 
yplus prom: 9.20878 
----------------------------------------------------- 
step 162, time 0.162000, maxvel 2.000000, total vol 181461, vol(u>maxvel) 0, cell count 0
bounding box (containing cells with vel>maxvel): xmin inf inf inf, xmax -inf -inf -infm 
bounding box of vehicle: xmin -12.2 -1.30003 -2.05998e-17, xmax 9.54098e-18 1.30033 3.6m 
yplus max: 49.4161, yplus min: 0.676995 
position of yplus max: -11.9739 -1.28774 2.16477 
yplus prom: 9.2091 
----------------------------------------------------- 
step 163, time 0.163000, maxvel 2.000000, total vol 181461, vol(u>maxvel) 0, cell count 0
bounding box (containing cells with vel>maxvel): xmin inf inf inf, xmax -inf -inf -infm 
bounding box of vehicle: xmin -12.2 -1.30003 -2.05998e-17, xmax 9.54098e-18 1.30033 3.6m 
yplus max: 49.4401, yplus min: 0.582071 
position of yplus max: -11.9739 -1.28774 2.16477 
yplus prom: 9.20941 
----------------------------------------------------- 
step 164, time 0.164000, maxvel 2.000000, total vol 181461, vol(u>maxvel) 0, cell count 0
bounding box (containing cells with vel>maxvel): xmin inf inf inf, xmax -inf -inf -infm 
bounding box of vehicle: xmin -12.2 -1.30003 -2.05998e-17, xmax 9.54098e-18 1.30033 3.6m 
yplus max: 49.464, yplus min: 0.468119 
position of yplus max: -11.9739 -1.28774 2.16477 
yplus prom: 9.2097 
----------------------------------------------------- 
step 165, time 0.165000, maxvel 2.000000, total vol 181461, vol(u>maxvel) 0, cell count 0
bounding box (containing cells with vel>maxvel): xmin inf inf inf, xmax -inf -inf -infm 
bounding box of vehicle: xmin -12.2 -1.30003 -2.05998e-17, xmax 9.54098e-18 1.30033 3.6m 
yplus max: 49.4878, yplus min: 0.391106 
position of yplus max: -11.9739 -1.28774 2.16477 
yplus prom: 9.20998 
----------------------------------------------------- 
step 166, time 0.166000, maxvel 2.000000, total vol 181461, vol(u>maxvel) 0, cell count 0
bounding box (containing cells with vel>maxvel): xmin inf inf inf, xmax -inf -inf -infm 
bounding box of vehicle: xmin -12.2 -1.30003 -2.05998e-17, xmax 9.54098e-18 1.30033 3.6m 
yplus max: 49.5114, yplus min: 0.329999 
position of yplus max: -11.9739 -1.28774 2.16477 
yplus prom: 9.21025 
----------------------------------------------------- 
step 167, time 0.167000, maxvel 2.000000, total vol 181461, vol(u>maxvel) 0, cell count 0
bounding box (containing cells with vel>maxvel): xmin inf inf inf, xmax -inf -inf -infm 
bounding box of vehicle: xmin -12.2 -1.30003 -2.05998e-17, xmax 9.54098e-18 1.30033 3.6m 
yplus max: 49.535, yplus min: 0.368761 
position of yplus max: -11.9739 -1.28774 2.16477 
yplus prom: 9.2105 
----------------------------------------------------- 
step 168, time 0.168000, maxvel 2.000000, total vol 181461, vol(u>maxvel) 0, cell count 0
bounding box (containing cells with vel>maxvel): xmin inf inf inf, xmax -inf -inf -infm 
bounding box of vehicle: xmin -12.2 -1.30003 -2.05998e-17, xmax 9.54098e-18 1.30033 3.6m 
yplus max: 49.5584, yplus min: 0.186551 
position of yplus max: -11.9739 -1.28774 2.16477 
yplus prom: 9.21074 
----------------------------------------------------- 
step 169, time 0.169000, maxvel 2.000000, total vol 181461, vol(u>maxvel) 0, cell count 0
bounding box (containing cells with vel>maxvel): xmin inf inf inf, xmax -inf -inf -infm 
bounding box of vehicle: xmin -12.2 -1.30003 -2.05998e-17, xmax 9.54098e-18 1.30033 3.6m 
yplus max: 49.5818, yplus min: 0.311618 
position of yplus max: -11.9739 -1.28774 2.16477 
yplus prom: 9.21096 
----------------------------------------------------- 
step 170, time 0.170000, maxvel 2.000000, total vol 181461, vol(u>maxvel) 0, cell count 0
bounding box (containing cells with vel>maxvel): xmin inf inf inf, xmax -inf -inf -infm 
bounding box of vehicle: xmin -12.2 -1.30003 -2.05998e-17, xmax 9.54098e-18 1.30033 3.6m 
yplus max: 49.605, yplus min: 0.289459 
position of yplus max: -11.9739 -1.28774 2.16477 
yplus prom: 9.21118 
----------------------------------------------------- 
step 171, time 0.171000, maxvel 2.000000, total vol 181461, vol(u>maxvel) 0, cell count 0
bounding box (containing cells with vel>maxvel): xmin inf inf inf, xmax -inf -inf -infm 
bounding box of vehicle: xmin -12.2 -1.30003 -2.05998e-17, xmax 9.54098e-18 1.30033 3.6m 
yplus max: 49.628, yplus min: 0.419405 
position of yplus max: -11.9739 -1.28774 2.16477 
yplus prom: 9.21139 
----------------------------------------------------- 
step 172, time 0.172000, maxvel 2.000000, total vol 181461, vol(u>maxvel) 0, cell count 0
bounding box (containing cells with vel>maxvel): xmin inf inf inf, xmax -inf -inf -infm 
bounding box of vehicle: xmin -12.2 -1.30003 -2.05998e-17, xmax 9.54098e-18 1.30033 3.6m 
yplus max: 49.651, yplus min: 0.528988 
position of yplus max: -11.9739 -1.28774 2.16477 
yplus prom: 9.21159 
----------------------------------------------------- 
step 173, time 0.173000, maxvel 2.000000, total vol 181461, vol(u>maxvel) 0, cell count 0
bounding box (containing cells with vel>maxvel): xmin inf inf inf, xmax -inf -inf -infm 
bounding box of vehicle: xmin -12.2 -1.30003 -2.05998e-17, xmax 9.54098e-18 1.30033 3.6m 
yplus max: 49.6739, yplus min: 0.637398 
position of yplus max: -11.9739 -1.28774 2.16477 
yplus prom: 9.21178 
----------------------------------------------------- 
step 174, time 0.174000, maxvel 2.000000, total vol 181461, vol(u>maxvel) 0, cell count 0
bounding box (containing cells with vel>maxvel): xmin inf inf inf, xmax -inf -inf -infm 
bounding box of vehicle: xmin -12.2 -1.30003 -2.05998e-17, xmax 9.54098e-18 1.30033 3.6m 
yplus max: 49.6966, yplus min: 0.734145 
position of yplus max: -11.9739 -1.28774 2.16477 
yplus prom: 9.21194 
----------------------------------------------------- 
step 175, time 0.175000, maxvel 2.000000, total vol 181461, vol(u>maxvel) 0, cell count 0
bounding box (containing cells with vel>maxvel): xmin inf inf inf, xmax -inf -inf -infm 
bounding box of vehicle: xmin -12.2 -1.30003 -2.05998e-17, xmax 9.54098e-18 1.30033 3.6m 
yplus max: 49.7192, yplus min: 0.820791 
position of yplus max: -11.9739 -1.28774 2.16477 
yplus prom: 9.2121 
----------------------------------------------------- 
step 176, time 0.176000, maxvel 2.000000, total vol 181461, vol(u>maxvel) 0, cell count 0
bounding box (containing cells with vel>maxvel): xmin inf inf inf, xmax -inf -inf -infm 
bounding box of vehicle: xmin -12.2 -1.30003 -2.05998e-17, xmax 9.54098e-18 1.30033 3.6m 
yplus max: 49.7417, yplus min: 0.899449 
position of yplus max: -11.9739 -1.28774 2.16477 
yplus prom: 9.21224 
----------------------------------------------------- 
step 177, time 0.177000, maxvel 2.000000, total vol 181461, vol(u>maxvel) 0, cell count 0
bounding box (containing cells with vel>maxvel): xmin inf inf inf, xmax -inf -inf -infm 
bounding box of vehicle: xmin -12.2 -1.30003 -2.05998e-17, xmax 9.54098e-18 1.30033 3.6m 
yplus max: 49.764, yplus min: 0.97174 
position of yplus max: -11.9739 -1.28774 2.16477 
yplus prom: 9.21237 
----------------------------------------------------- 
step 178, time 0.178000, maxvel 2.000000, total vol 181461, vol(u>maxvel) 0, cell count 0
bounding box (containing cells with vel>maxvel): xmin inf inf inf, xmax -inf -inf -infm 
bounding box of vehicle: xmin -12.2 -1.30003 -2.05998e-17, xmax 9.54098e-18 1.30033 3.6m 
yplus max: 49.7863, yplus min: 1.03884 
position of yplus max: -11.9739 -1.28774 2.16477 
yplus prom: 9.21248 
----------------------------------------------------- 
step 179, time 0.179000, maxvel 2.000000, total vol 181461, vol(u>maxvel) 0, cell count 0
bounding box (containing cells with vel>maxvel): xmin inf inf inf, xmax -inf -inf -infm 
bounding box of vehicle: xmin -12.2 -1.30003 -2.05998e-17, xmax 9.54098e-18 1.30033 3.6m 
yplus max: 49.8084, yplus min: 1.08473 
position of yplus max: -11.9739 -1.28774 2.16477 
yplus prom: 9.21257 
----------------------------------------------------- 
step 180, time 0.180000, maxvel 2.000000, total vol 181461, vol(u>maxvel) 0, cell count 0
bounding box (containing cells with vel>maxvel): xmin inf inf inf, xmax -inf -inf -infm 
bounding box of vehicle: xmin -12.2 -1.30003 -2.05998e-17, xmax 9.54098e-18 1.30033 3.6m 
yplus max: 49.8304, yplus min: 1.04542 
position of yplus max: -11.9739 -1.28774 2.16477 
yplus prom: 9.21266 
----------------------------------------------------- 
step 181, time 0.181000, maxvel 2.000000, total vol 181461, vol(u>maxvel) 0, cell count 0
bounding box (containing cells with vel>maxvel): xmin inf inf inf, xmax -inf -inf -infm 
bounding box of vehicle: xmin -12.2 -1.30003 -2.05998e-17, xmax 9.54098e-18 1.30033 3.6m 
yplus max: 49.8522, yplus min: 0.983188 
[...]
bounding box of vehicle: xmin -12.2 -1.30003 -2.05998e-17, xmax 9.54098e-18 1.30033 3.6m 
yplus max: 51.6639, yplus min: 0.888085 
position of yplus max: -11.9739 -1.28774 2.16477 
yplus prom: 9.16765 
----------------------------------------------------- 
step 307, time 0.307000, maxvel 2.000000, total vol 181461, vol(u>maxvel) 0.00303477, cell count 313
bounding box (containing cells with vel>maxvel): xmin -12.1389 -1.2873 0.564966, xmax -12.0894 1.2876 1.75921m 
bounding box of vehicle: xmin -12.2 -1.30003 -2.05998e-17, xmax 9.54098e-18 1.30033 3.6m 
yplus max: 51.6726, yplus min: 0.930786 
position of yplus max: -11.9739 -1.28774 2.16477 
yplus prom: 9.16705 
----------------------------------------------------- 
step 308, time 0.308000, maxvel 2.000000, total vol 181461, vol(u>maxvel) 0.0030876, cell count 319
bounding box (containing cells with vel>maxvel): xmin -12.1389 -1.2873 0.564966, xmax -12.089 1.2876 1.75921m 
bounding box of vehicle: xmin -12.2 -1.30003 -2.05998e-17, xmax 9.54098e-18 1.30033 3.6m 
yplus max: 51.6811, yplus min: 0.971818 
position of yplus max: -11.9739 -1.28774 2.16477 
yplus prom: 9.16645 
----------------------------------------------------- 
step 309, time 0.309000, maxvel 2.000000, total vol 181461, vol(u>maxvel) 0.00314049, cell count 324
bounding box (containing cells with vel>maxvel): xmin -12.1389 -1.2873 0.564966, xmax -12.089 1.2876 1.75921m 
bounding box of vehicle: xmin -12.2 -1.30003 -2.05998e-17, xmax 9.54098e-18 1.30033 3.6m 
yplus max: 51.6896, yplus min: 1.01134 
position of yplus max: -11.9739 -1.28774 2.16477 
yplus prom: 9.16585 
----------------------------------------------------- 
step 310, time 0.310000, maxvel 2.000000, total vol 181461, vol(u>maxvel) 0.00317069, cell count 326
bounding box (containing cells with vel>maxvel): xmin -12.1389 -1.2873 0.564966, xmax -12.089 1.2876 1.79633m 
bounding box of vehicle: xmin -12.2 -1.30003 -2.05998e-17, xmax 9.54098e-18 1.30033 3.6m 
yplus max: 51.698, yplus min: 1.0044 
position of yplus max: -11.9739 -1.28774 2.16477 
yplus prom: 9.16525 
----------------------------------------------------- 
step 311, time 0.311000, maxvel 2.000000, total vol 181461, vol(u>maxvel) 0.0032122, cell count 329
bounding box (containing cells with vel>maxvel): xmin -12.1389 -1.28746 0.564966, xmax -12.089 1.28763 1.79633m 
bounding box of vehicle: xmin -12.2 -1.30003 -2.05998e-17, xmax 9.54098e-18 1.30033 3.6m 
yplus max: 51.7064, yplus min: 0.945307 
position of yplus max: -11.9739 -1.28774 2.16477 
yplus prom: 9.16464 
----------------------------------------------------- 
step 312, time 0.312000, maxvel 2.000000, total vol 181461, vol(u>maxvel) 0.00321965, cell count 330
bounding box (containing cells with vel>maxvel): xmin -12.1389 -1.28746 0.564966, xmax -12.089 1.28763 1.79633m 
bounding box of vehicle: xmin -12.2 -1.30003 -2.05998e-17, xmax 9.54098e-18 1.30033 3.6m 
yplus max: 51.7147, yplus min: 0.88243 
position of yplus max: -11.9739 -1.28774 2.16477 
yplus prom: 9.16403 
----------------------------------------------------- 
step 313, time 0.313000, maxvel 2.000000, total vol 181461, vol(u>maxvel) 0.00324673, cell count 332
bounding box (containing cells with vel>maxvel): xmin -12.1389 -1.28746 0.564966, xmax -12.089 1.28763 1.79633m 
bounding box of vehicle: xmin -12.2 -1.30003 -2.05998e-17, xmax 9.54098e-18 1.30033 3.6m 
yplus max: 51.7229, yplus min: 0.814927 
position of yplus max: -11.9739 -1.28774 2.16477 
yplus prom: 9.16342 
----------------------------------------------------- 
step 314, time 0.314000, maxvel 2.000000, total vol 181461, vol(u>maxvel) 0.0032602, cell count 334
bounding box (containing cells with vel>maxvel): xmin -12.1389 -1.28746 0.564966, xmax -12.089 1.28763 1.79633m 
bounding box of vehicle: xmin -12.2 -1.30003 -2.05998e-17, xmax 9.54098e-18 1.30033 3.6m 
yplus max: 51.7311, yplus min: 0.741604 
position of yplus max: -11.9739 -1.28774 2.16477 
yplus prom: 9.1628 
----------------------------------------------------- 
step 315, time 0.315000, maxvel 2.000000, total vol 181461, vol(u>maxvel) 0.003296, cell count 337
bounding box (containing cells with vel>maxvel): xmin -12.1389 -1.28746 0.564966, xmax -12.089 1.28763 1.79633m 
bounding box of vehicle: xmin -12.2 -1.30003 -2.05998e-17, xmax 9.54098e-18 1.30033 3.6m 
yplus max: 51.7392, yplus min: 0.660677 
position of yplus max: -11.9739 -1.28774 2.16477 
yplus prom: 9.16219 
----------------------------------------------------- 
step 316, time 0.316000, maxvel 2.000000, total vol 181461, vol(u>maxvel) 0.00333737, cell count 342
bounding box (containing cells with vel>maxvel): xmin -12.1389 -1.28746 0.564966, xmax -12.089 1.28763 1.79633m 
bounding box of vehicle: xmin -12.2 -1.30003 -2.05998e-17, xmax 9.54098e-18 1.30033 3.6m 
yplus max: 51.7472, yplus min: 0.569315 
position of yplus max: -11.9739 -1.28774 2.16477 
yplus prom: 9.16157 
----------------------------------------------------- 
step 317, time 0.317000, maxvel 2.000000, total vol 181461, vol(u>maxvel) 0.00336139, cell count 344
bounding box (containing cells with vel>maxvel): xmin -12.1389 -1.28746 0.564966, xmax -12.089 1.28763 1.79633m 
bounding box of vehicle: xmin -12.2 -1.30003 -2.05998e-17, xmax 9.54098e-18 1.30033 3.6m 
yplus max: 51.7552, yplus min: 0.462926 
position of yplus max: -11.9739 -1.28774 2.16477 
yplus prom: 9.16095 
----------------------------------------------------- 
step 318, time 0.318000, maxvel 2.000000, total vol 181461, vol(u>maxvel) 0.00340358, cell count 347
bounding box (containing cells with vel>maxvel): xmin -12.1389 -1.28746 0.564966, xmax -12.088 1.28763 1.79633m 
bounding box of vehicle: xmin -12.2 -1.30003 -2.05998e-17, xmax 9.54098e-18 1.30033 3.6m 
yplus max: 51.7631, yplus min: 0.337745 
position of yplus max: -11.9739 -1.28774 2.16477 
yplus prom: 9.16034 
----------------------------------------------------- 
step 319, time 0.319000, maxvel 2.000000, total vol 181461, vol(u>maxvel) 0.00345728, cell count 352
bounding box (containing cells with vel>maxvel): xmin -12.1389 -1.29493 0.527663, xmax -12.0517 1.28763 1.79633m 
bounding box of vehicle: xmin -12.2 -1.30003 -2.05998e-17, xmax 9.54098e-18 1.30033 3.6m 
yplus max: 51.771, yplus min: 0.280359 
position of yplus max: -11.9739 -1.28774 2.16477 
yplus prom: 9.15972 
----------------------------------------------------- 
step 320, time 0.320000, maxvel 2.000000, total vol 181461, vol(u>maxvel) 0.00347669, cell count 354
bounding box (containing cells with vel>maxvel): xmin -12.1389 -1.29493 0.527663, xmax -12.0517 1.28763 1.79633m 
bounding box of vehicle: xmin -12.2 -1.30003 -2.05998e-17, xmax 9.54098e-18 1.30033 3.6m 
yplus max: 51.7788, yplus min: 0.314249 
position of yplus max: -11.9739 -1.28774 2.16477 
yplus prom: 9.15911 
----------------------------------------------------- 
step 321, time 0.321000, maxvel 2.000000, total vol 181461, vol(u>maxvel) 0.00351537, cell count 358
bounding box (containing cells with vel>maxvel): xmin -12.1389 -1.30128 0.527663, xmax -12.0517 1.28763 1.79633m 
bounding box of vehicle: xmin -12.2 -1.30003 -2.05998e-17, xmax 9.54098e-18 1.30033 3.6m 
yplus max: 51.7865, yplus min: 0.236346 
position of yplus max: -11.9739 -1.28774 2.16477 
yplus prom: 9.15851 
----------------------------------------------------- 
step 322, time 0.322000, maxvel 2.000000, total vol 181461, vol(u>maxvel) 0.00352654, cell count 359
bounding box (containing cells with vel>maxvel): xmin -12.1389 -1.30128 0.527663, xmax -12.0517 1.28763 1.79633m 
bounding box of vehicle: xmin -12.2 -1.30003 -2.05998e-17, xmax 9.54098e-18 1.30033 3.6m 
yplus max: 51.7942, yplus min: 0.382864 
position of yplus max: -11.9739 -1.28774 2.16477 
yplus prom: 9.15792 
----------------------------------------------------- 
step 323, time 0.323000, maxvel 2.000000, total vol 181461, vol(u>maxvel) 0.00358658, cell count 364
bounding box (containing cells with vel>maxvel): xmin -12.1389 -1.30249 0.527663, xmax -12.0517 1.28763 1.83381m 
bounding box of vehicle: xmin -12.2 -1.30003 -2.05998e-17, xmax 9.54098e-18 1.30033 3.6m 
yplus max: 51.8018, yplus min: 0.504371 
position of yplus max: -11.9739 -1.28774 2.16477 
yplus prom: 9.15733 
----------------------------------------------------- 
step 324, time 0.324000, maxvel 2.000000, total vol 181461, vol(u>maxvel) 0.00362353, cell count 368
bounding box (containing cells with vel>maxvel): xmin -12.1389 -1.30249 0.490282, xmax -12.0517 1.28763 1.83381m 
bounding box of vehicle: xmin -12.2 -1.30003 -2.05998e-17, xmax 9.54098e-18 1.30033 3.6m 
yplus max: 51.8094, yplus min: 0.603515 
position of yplus max: -11.9739 -1.28774 2.16477 
yplus prom: 9.15675 
----------------------------------------------------- 
step 325, time 0.325000, maxvel 2.000000, total vol 181461, vol(u>maxvel) 0.00363034, cell count 369
bounding box (containing cells with vel>maxvel): xmin -12.1389 -1.30249 0.490282, xmax -12.0517 1.28763 1.83381m 
bounding box of vehicle: xmin -12.2 -1.30003 -2.05998e-17, xmax 9.54098e-18 1.30033 3.6m 
yplus max: 51.8169, yplus min: 0.688875 
position of yplus max: -11.9739 -1.28774 2.16477 
yplus prom: 9.15616 
----------------------------------------------------- 
step 326, time 0.326000, maxvel 2.000000, total vol 181461, vol(u>maxvel) 0.00365069, cell count 371
bounding box (containing cells with vel>maxvel): xmin -12.1389 -1.30249 0.490282, xmax -12.0517 1.28763 1.83381m 
bounding box of vehicle: xmin -12.2 -1.30003 -2.05998e-17, xmax 9.54098e-18 1.30033 3.6m 
yplus max: 51.8243, yplus min: 0.764827 
position of yplus max: -11.9739 -1.28774 2.16477 
yplus prom: 9.15558 
----------------------------------------------------- 
step 327, time 0.327000, maxvel 2.000000, total vol 181461, vol(u>maxvel) 0.00367171, cell count 374
bounding box (containing cells with vel>maxvel): xmin -12.1389 -1.30249 0.490282, xmax -12.0517 1.28763 1.83381m 
bounding box of vehicle: xmin -12.2 -1.30003 -2.05998e-17, xmax 9.54098e-18 1.30033 3.6m 
yplus max: 51.8317, yplus min: 0.833858 
position of yplus max: -11.9739 -1.28774 2.16477 
yplus prom: 9.15499 
----------------------------------------------------- 
step 328, time 0.328000, maxvel 2.000000, total vol 181461, vol(u>maxvel) 0.00370796, cell count 379
bounding box (containing cells with vel>maxvel): xmin -12.1389 -1.30256 0.490282, xmax -12.0517 1.28763 1.83381m 
bounding box of vehicle: xmin -12.2 -1.30003 -2.05998e-17, xmax 9.54098e-18 1.30033 3.6m 
yplus max: 51.839, yplus min: 0.89753 
position of yplus max: -11.9739 -1.28774 2.16477 
yplus prom: 9.15441 
----------------------------------------------------- 
step 329, time 0.329000, maxvel 2.000000, total vol 181461, vol(u>maxvel) 0.00378363, cell count 387
bounding box (containing cells with vel>maxvel): xmin -12.1389 -1.30256 0.490282, xmax -12.0517 1.28763 1.83381m 
bounding box of vehicle: xmin -12.2 -1.30003 -2.05998e-17, xmax 9.54098e-18 1.30033 3.6m 
yplus max: 51.8463, yplus min: 0.956897 
position of yplus max: -11.9739 -1.28774 2.16477 
yplus prom: 9.15382 
----------------------------------------------------- 
step 330, time 0.330000, maxvel 2.000000, total vol 181461, vol(u>maxvel) 0.00381131, cell count 391
bounding box (containing cells with vel>maxvel): xmin -12.1389 -1.30256 0.490282, xmax -12.0517 1.28763 1.83381m 
bounding box of vehicle: xmin -12.2 -1.30003 -2.05998e-17, xmax 9.54098e-18 1.30033 3.6m 
yplus max: 51.8535, yplus min: 0.96146 
position of yplus max: -11.9739 -1.28774 2.16477 
yplus prom: 9.15323 
----------------------------------------------------- 
step 331, time 0.331000, maxvel 2.000000, total vol 181461, vol(u>maxvel) 0.00387401, cell count 397
bounding box (containing cells with vel>maxvel): xmin -12.1389 -1.30256 0.452952, xmax -12.0517 1.28763 1.83381m 
bounding box of vehicle: xmin -12.2 -1.30003 -2.05998e-17, xmax 9.54098e-18 1.30033 3.6m 
yplus max: 51.8607, yplus min: 0.92881 
position of yplus max: -11.9739 -1.28774 2.16477 
yplus prom: 9.15264 
----------------------------------------------------- 
step 332, time 0.332000, maxvel 2.000000, total vol 181461, vol(u>maxvel) 0.00392893, cell count 404
bounding box (containing cells with vel>maxvel): xmin -12.1389 -1.30256 0.452952, xmax -12.0517 1.28763 1.83381m 
bounding box of vehicle: xmin -12.2 -1.30003 -2.05998e-17, xmax 9.54098e-18 1.30033 3.6m 
yplus max: 51.8678, yplus min: 0.896262 
position of yplus max: -11.9739 -1.28774 2.16477 
yplus prom: 9.15205 
----------------------------------------------------- 
step 333, time 0.333000, maxvel 2.000000, total vol 181461, vol(u>maxvel) 0.00394185, cell count 406
bounding box (containing cells with vel>maxvel): xmin -12.1389 -1.30256 0.452952, xmax -12.0517 1.28763 1.83381m 
bounding box of vehicle: xmin -12.2 -1.30003 -2.05998e-17, xmax 9.54098e-18 1.30033 3.6m 
yplus max: 51.8749, yplus min: 0.8641 
position of yplus max: -11.9739 -1.28774 2.16477 
yplus prom: 9.15145 
----------------------------------------------------- 
step 334, time 0.334000, maxvel 2.000000, total vol 181461, vol(u>maxvel) 0.00399421, cell count 411
bounding box (containing cells with vel>maxvel): xmin -12.1389 -1.30256 0.452952, xmax -12.0517 1.28763 1.83381m 
bounding box of vehicle: xmin -12.2 -1.30003 -2.05998e-17, xmax 9.54098e-18 1.30033 3.6m 
yplus max: 51.8819, yplus min: 0.832727 
position of yplus max: -11.9739 -1.28774 2.16477 
yplus prom: 9.15086 
----------------------------------------------------- 
step 335, time 0.335000, maxvel 2.000000, total vol 181461, vol(u>maxvel) 0.00402083, cell count 414
bounding box (containing cells with vel>maxvel): xmin -12.1389 -1.30256 0.452952, xmax -12.0517 1.28763 1.83381m 
bounding box of vehicle: xmin -12.2 -1.30003 -2.05998e-17, xmax 9.54098e-18 1.30033 3.6m 
yplus max: 51.8888, yplus min: 0.802702 
position of yplus max: -11.9739 -1.28774 2.16477 
yplus prom: 9.15026 
----------------------------------------------------- 
step 336, time 0.336000, maxvel 2.000000, total vol 181461, vol(u>maxvel) 0.00403956, cell count 416
bounding box (containing cells with vel>maxvel): xmin -12.1389 -1.30256 0.452952, xmax -12.0517 1.30105 1.83381m 
bounding box of vehicle: xmin -12.2 -1.30003 -2.05998e-17, xmax 9.54098e-18 1.30033 3.6m 
yplus max: 51.8957, yplus min: 0.774776 
position of yplus max: -11.9739 -1.28774 2.16477 
yplus prom: 9.14967 
----------------------------------------------------- 
step 337, time 0.337000, maxvel 2.000000, total vol 181461, vol(u>maxvel) 0.00406434, cell count 420
bounding box (containing cells with vel>maxvel): xmin -12.1389 -1.30256 0.452952, xmax -12.0517 1.30105 1.83381m 
bounding box of vehicle: xmin -12.2 -1.30003 -2.05998e-17, xmax 9.54098e-18 1.30033 3.6m 
yplus max: 51.9026, yplus min: 0.749908 
position of yplus max: -11.9739 -1.28774 2.16477 
yplus prom: 9.14907 
----------------------------------------------------- 
step 338, time 0.338000, maxvel 2.000000, total vol 181461, vol(u>maxvel) 0.00409828, cell count 425
bounding box (containing cells with vel>maxvel): xmin -12.1389 -1.30256 0.452952, xmax -12.0517 1.30105 1.83381m 
bounding box of vehicle: xmin -12.2 -1.30003 -2.05998e-17, xmax 9.54098e-18 1.30033 3.6m 
yplus max: 51.9094, yplus min: 0.72924 
position of yplus max: -11.9739 -1.28774 2.16477 
yplus prom: 9.14847 
----------------------------------------------------- 
step 339, time 0.339000, maxvel 2.000000, total vol 181461, vol(u>maxvel) 0.00411963, cell count 428
bounding box (containing cells with vel>maxvel): xmin -12.1389 -1.30476 0.452952, xmax -12.0517 1.30105 1.83381m 
bounding box of vehicle: xmin -12.2 -1.30003 -2.05998e-17, xmax 9.54098e-18 1.30033 3.6m 
yplus max: 51.9161, yplus min: 0.713991 
position of yplus max: -11.9739 -1.28774 2.16477 
yplus prom: 9.14787 
----------------------------------------------------- 
step 340, time 0.340000, maxvel 2.000000, total vol 181461, vol(u>maxvel) 0.0041307, cell count 430
bounding box (containing cells with vel>maxvel): xmin -12.1389 -1.30476 0.452952, xmax -12.0517 1.30105 1.83381m 
bounding box of vehicle: xmin -12.2 -1.30003 -2.05998e-17, xmax 9.54098e-18 1.30033 3.6m 
yplus max: 51.9228, yplus min: 0.705243 
position of yplus max: -11.9739 -1.28774 2.16477 
yplus prom: 9.14727 
----------------------------------------------------- 
step 341, time 0.341000, maxvel 2.000000, total vol 181461, vol(u>maxvel) 0.00415161, cell count 433
bounding box (containing cells with vel>maxvel): xmin -12.1389 -1.30476 0.452952, xmax -12.0517 1.30105 1.83381m 
bounding box of vehicle: xmin -12.2 -1.30003 -2.05998e-17, xmax 9.54098e-18 1.30033 3.6m 
yplus max: 51.9295, yplus min: 0.703675 
position of yplus max: -11.9739 -1.28774 2.16477 
yplus prom: 9.14667 
----------------------------------------------------- 
step 342, time 0.342000, maxvel 2.000000, total vol 181461, vol(u>maxvel) 0.00418867, cell count 437
bounding box (containing cells with vel>maxvel): xmin -12.1389 -1.30476 0.452952, xmax -12.0517 1.30105 1.83381m 
bounding box of vehicle: xmin -12.2 -1.30003 -2.05998e-17, xmax 9.54098e-18 1.30033 3.6m 
yplus max: 51.9361, yplus min: 0.709358 
position of yplus max: -11.9739 -1.28774 2.16477 
yplus prom: 9.14606 
----------------------------------------------------- 
step 343, time 0.343000, maxvel 2.000000, total vol 181461, vol(u>maxvel) 0.00420161, cell count 439
bounding box (containing cells with vel>maxvel): xmin -12.1389 -1.30476 0.452952, xmax -12.0517 1.30105 1.83381m 
bounding box of vehicle: xmin -12.2 -1.30003 -2.05998e-17, xmax 9.54098e-18 1.30033 3.6m 
yplus max: 51.9426, yplus min: 0.721725 
position of yplus max: -11.9739 -1.28774 2.16477 
yplus prom: 9.14546 
----------------------------------------------------- 
step 344, time 0.344000, maxvel 2.000000, total vol 181461, vol(u>maxvel) 0.00423495, cell count 444
bounding box (containing cells with vel>maxvel): xmin -12.1389 -1.30476 0.452952, xmax -12.0517 1.30105 1.83381m 
bounding box of vehicle: xmin -12.2 -1.30003 -2.05998e-17, xmax 9.54098e-18 1.30033 3.6m 
yplus max: 51.9491, yplus min: 0.739746 
position of yplus max: -11.9739 -1.28774 2.16477 
yplus prom: 9.14485 
----------------------------------------------------- 
step 345, time 0.345000, maxvel 2.000000, total vol 181461, vol(u>maxvel) 0.00424849, cell count 445
bounding box (containing cells with vel>maxvel): xmin -12.1389 -1.30476 0.452952, xmax -12.0517 1.30105 1.83381m 
bounding box of vehicle: xmin -12.2 -1.30003 -2.05998e-17, xmax 9.54098e-18 1.30033 3.6m 
yplus max: 51.9555, yplus min: 0.762192 
position of yplus max: -11.9739 -1.28774 2.16477 
yplus prom: 9.14425 
----------------------------------------------------- 
step 346, time 0.346000, maxvel 2.000000, total vol 181461, vol(u>maxvel) 0.00424849, cell count 445
bounding box (containing cells with vel>maxvel): xmin -12.1389 -1.30476 0.452952, xmax -12.0517 1.30105 1.83381m 
bounding box of vehicle: xmin -12.2 -1.30003 -2.05998e-17, xmax 9.54098e-18 1.30033 3.6m 
yplus max: 51.9619, yplus min: 0.787874 
position of yplus max: -11.9739 -1.28774 2.16477 
yplus prom: 9.14364 
----------------------------------------------------- 
step 347, time 0.347000, maxvel 2.000000, total vol 181461, vol(u>maxvel) 0.00425643, cell count 446
bounding box (containing cells with vel>maxvel): xmin -12.1389 -1.30476 0.452952, xmax -12.0517 1.30105 1.83381m 
bounding box of vehicle: xmin -12.2 -1.30003 -2.05998e-17, xmax 9.54098e-18 1.30033 3.6m 
yplus max: 51.9683, yplus min: 0.815771 
position of yplus max: -11.9739 -1.28774 2.16477 
yplus prom: 9.14303 
----------------------------------------------------- 
srun: Job step aborted: Waiting up to 32 seconds for job step to finish.
srun: got SIGCONT
slurmstepd: error: *** JOB 138343 ON compute-0-21 CANCELLED AT 2022-08-02T03:32:25 ***
srun: forcing job termination
make: *** [run] Terminated
slurmstepd: error: *** STEP 138343.0 ON compute-0-21 CANCELLED AT 2022-08-02T03:32:25 ***
