Start run at mié sep 14 13:28:18 ART 2022
PYTHON_CS_XFLAGS=' -O0 -g3 -ggdb3 -I/usr/include/jsoncpp ' /share/storage/pub/mstorti/saturne-vof/bin/code_saturne  run --param setup.xml

The following have been reloaded with a version change:
  1) llvm/6.0.0 => llvm/3.4.2


The following have been reloaded with a version change:
  1) llvm/3.4.2 => llvm/6.0.0

cs_user_scripts: hostname pirayu

                      Code_Saturne
                      ************

 Version:   6.1-alpha
 Path:      /share/storage/pub/mstorti/saturne-vof

 Result directory:
   /share/storage/finzeo/CS_GTS_test/RESU/20220914-1328


 ****************************************
  Compiling user subroutines and linking
 ****************************************


 *****************************
  Post-calculation operations
 *****************************

 Error in compile or link stage.

make: *** [run] Error 1
