Start run at vie sep 9 12:37:32 ART 2022
PYTHON_CS_XFLAGS=' -O0 -g3 -ggdb3 -I/usr/include/jsoncpp ' /share/storage/pub/mstorti/saturne-vof/bin/code_saturne  run --param setup.xml

The following have been reloaded with a version change:
  1) llvm/6.0.0 => llvm/3.4.2


The following have been reloaded with a version change:
  1) llvm/3.4.2 => llvm/6.0.0


                      Code_Saturne
                      ************

 Version:   6.1-alpha
 Path:      /share/storage/pub/mstorti/saturne-vof

 Result directory:
   /share/storage/finzeo/GTS_Tunay_2/RESU/20220909-1237


 ****************************************
  Compiling user subroutines and linking
 ****************************************


 ****************************
  Preparing calculation data
 ****************************

 Parallel Code_Saturne on 80 processes.


 ***************************
  Preprocessing calculation
 ***************************


 **********************
  Starting calculation
 **********************

Warning: Process to core binding is enabled and OMP_NUM_THREADS is set to non-zero (1) value
If your program has OpenMP sections, this can cause over-subscription of cores and consequently poor performance
To avoid this, please re-run your application after setting MV2_ENABLE_AFFINITY=0
Use MV2_USE_THREAD_WARNING=0 to suppress this message
step 1, time 0.000750, maxvel 3.000000, total vol 359.697, vol(u>maxvel) 0, cell count 0
bounding box (containing cells with vel>maxvel): xmin inf inf inf, xmax -inf -inf -infm 
bounding box of vehicle: xmin -2.47489 -0.161927 0.0631, xmax 0 0.161927 0.5139m 
gts area: 4.03325 
yplus max: 4.43412, yplus min: 0 
position of yplus max: -2.28486 -0.00753125 0.48394 
yplus prom: 3.85413 
forces: 26.339223 0.017418 -3.636557 
Drag coefficient: 195.839103 
torque (ref. CG): -0.004152 (roll) 1.779395 (pitch) -0.021553 (yaw) 
----------------------------------------------------- 
step 2, time 0.001500, maxvel 3.000000, total vol 359.697, vol(u>maxvel) 0, cell count 0
bounding box (containing cells with vel>maxvel): xmin inf inf inf, xmax -inf -inf -infm 
bounding box of vehicle: xmin -2.47489 -0.161927 0.0631, xmax 0 0.161927 0.5139m 
gts area: 4.03325 
yplus max: 1.06138, yplus min: 0.170303 
position of yplus max: -2.31953 -0.00684782 0.47069 
yplus prom: 0.835586 
forces: 81.528764 -0.002039 -9.923574 
Drag coefficient: 606.187965 
torque (ref. CG): 0.000486 (roll) 7.157027 (pitch) 0.002523 (yaw) 
----------------------------------------------------- 
step 3, time 0.002250, maxvel 3.000000, total vol 359.697, vol(u>maxvel) 0, cell count 0
bounding box (containing cells with vel>maxvel): xmin inf inf inf, xmax -inf -inf -infm 
bounding box of vehicle: xmin -2.47489 -0.161927 0.0631, xmax 0 0.161927 0.5139m 
gts area: 4.03325 
yplus max: 3.77171, yplus min: 0.0729957 
position of yplus max: -2.47418 0.160898 0.138855 
yplus prom: 0.987131 
forces: 21.529849 0.023129 -2.140165 
Drag coefficient: 160.080136 
torque (ref. CG): -0.005514 (roll) 2.484475 (pitch) -0.028619 (yaw) 
----------------------------------------------------- 
step 4, time 0.003000, maxvel 3.000000, total vol 359.697, vol(u>maxvel) 0, cell count 0
bounding box (containing cells with vel>maxvel): xmin inf inf inf, xmax -inf -inf -infm 
bounding box of vehicle: xmin -2.47489 -0.161927 0.0631, xmax 0 0.161927 0.5139m 
gts area: 4.03325 
yplus max: 3.6356, yplus min: 0.166783 
position of yplus max: -2.47422 0.16113 0.106396 
yplus prom: 0.952451 
forces: -0.483263 0.002143 0.064285 
Drag coefficient: -3.593187 
torque (ref. CG): -0.000511 (roll) -0.035664 (pitch) -0.002651 (yaw) 
----------------------------------------------------- 
step 5, time 0.003750, maxvel 3.000000, total vol 359.697, vol(u>maxvel) 0, cell count 0
bounding box (containing cells with vel>maxvel): xmin inf inf inf, xmax -inf -inf -infm 
bounding box of vehicle: xmin -2.47489 -0.161927 0.0631, xmax 0 0.161927 0.5139m 
gts area: 4.03325 
yplus max: 3.58828, yplus min: 0.145481 
position of yplus max: -2.47428 0.160903 0.117671 
yplus prom: 0.94289 
forces: -0.488201 -0.003480 0.121190 
Drag coefficient: -3.629907 
torque (ref. CG): 0.000830 (roll) 0.033573 (pitch) 0.004306 (yaw) 
----------------------------------------------------- 
step 6, time 0.004500, maxvel 3.000000, total vol 359.697, vol(u>maxvel) 0, cell count 0
bounding box (containing cells with vel>maxvel): xmin inf inf inf, xmax -inf -inf -infm 
bounding box of vehicle: xmin -2.47489 -0.161927 0.0631, xmax 0 0.161927 0.5139m 
gts area: 4.03325 
yplus max: 3.65784, yplus min: 0.176651 
position of yplus max: -2.47422 0.16113 0.106396 
yplus prom: 0.940519 
forces: 0.053954 0.000710 0.004025 
Drag coefficient: 0.401162 
torque (ref. CG): -0.000169 (roll) 0.017843 (pitch) -0.000879 (yaw) 
----------------------------------------------------- 
step 7, time 0.005250, maxvel 3.000000, total vol 359.697, vol(u>maxvel) 0, cell count 0
bounding box (containing cells with vel>maxvel): xmin inf inf inf, xmax -inf -inf -infm 
bounding box of vehicle: xmin -2.47489 -0.161927 0.0631, xmax 0 0.161927 0.5139m 
gts area: 4.03325 
yplus max: 3.718, yplus min: 0.136238 
position of yplus max: -2.47422 0.16113 0.106396 
yplus prom: 0.938707 
forces: 0.120951 0.001671 -0.015362 
Drag coefficient: 0.899301 
torque (ref. CG): -0.000398 (roll) 0.009826 (pitch) -0.002067 (yaw) 
----------------------------------------------------- 
step 8, time 0.006000, maxvel 3.000000, total vol 359.697, vol(u>maxvel) 0, cell count 0
bounding box (containing cells with vel>maxvel): xmin inf inf inf, xmax -inf -inf -infm 
bounding box of vehicle: xmin -2.47489 -0.161927 0.0631, xmax 0 0.161927 0.5139m 
gts area: 4.03325 
yplus max: 3.76104, yplus min: 0.0726165 
position of yplus max: -2.47422 0.16113 0.106396 
yplus prom: 0.937145 
forces: 0.103808 0.001471 -0.012013 
Drag coefficient: 0.771844 
torque (ref. CG): -0.000351 (roll) 0.009883 (pitch) -0.001821 (yaw) 
----------------------------------------------------- 
step 9, time 0.006750, maxvel 3.000000, total vol 359.697, vol(u>maxvel) 0, cell count 0
bounding box (containing cells with vel>maxvel): xmin inf inf inf, xmax -inf -inf -infm 
bounding box of vehicle: xmin -2.47489 -0.161927 0.0631, xmax 0 0.161927 0.5139m 
gts area: 4.03325 
yplus max: 3.79533, yplus min: 0.168167 
position of yplus max: -2.47422 0.16113 0.106396 
yplus prom: 0.936204 
forces: 0.097380 0.001284 -0.010339 
Drag coefficient: 0.724048 
torque (ref. CG): -0.000306 (roll) 0.010422 (pitch) -0.001588 (yaw) 
----------------------------------------------------- 
step 10, time 0.007500, maxvel 3.000000, total vol 359.697, vol(u>maxvel) 0, cell count 0
bounding box (containing cells with vel>maxvel): xmin inf inf inf, xmax -inf -inf -infm 
bounding box of vehicle: xmin -2.47489 -0.161927 0.0631, xmax 0 0.161927 0.5139m 
gts area: 4.03325 
yplus max: 3.82429, yplus min: 0.157918 
position of yplus max: -2.47422 0.16113 0.106396 
yplus prom: 0.935902 
forces: 0.097846 0.001223 -0.010336 
Drag coefficient: 0.727513 
torque (ref. CG): -0.000292 (roll) 0.010536 (pitch) -0.001514 (yaw) 
----------------------------------------------------- 
step 11, time 0.008250, maxvel 3.000000, total vol 359.697, vol(u>maxvel) 0, cell count 0
bounding box (containing cells with vel>maxvel): xmin inf inf inf, xmax -inf -inf -infm 
bounding box of vehicle: xmin -2.47489 -0.161927 0.0631, xmax 0 0.161927 0.5139m 
gts area: 4.03325 
yplus max: 3.84941, yplus min: 0.132673 
position of yplus max: -2.47422 0.16113 0.106396 
yplus prom: 0.936193 
forces: 0.099016 0.001215 -0.010572 
Drag coefficient: 0.736207 
torque (ref. CG): -0.000290 (roll) 0.010524 (pitch) -0.001504 (yaw) 
----------------------------------------------------- 
step 12, time 0.009000, maxvel 3.000000, total vol 359.697, vol(u>maxvel) 0, cell count 0
bounding box (containing cells with vel>maxvel): xmin inf inf inf, xmax -inf -inf -infm 
bounding box of vehicle: xmin -2.47489 -0.161927 0.0631, xmax 0 0.161927 0.5139m 
gts area: 4.03325 
yplus max: 3.87154, yplus min: 0.197043 
position of yplus max: -2.47422 0.16113 0.106396 
yplus prom: 0.936926 
forces: 0.099867 0.001201 -0.010748 
Drag coefficient: 0.742540 
torque (ref. CG): -0.000286 (roll) 0.010508 (pitch) -0.001486 (yaw) 
----------------------------------------------------- 
step 13, time 0.009750, maxvel 3.000000, total vol 359.697, vol(u>maxvel) 0, cell count 0
bounding box (containing cells with vel>maxvel): xmin inf inf inf, xmax -inf -inf -infm 
bounding box of vehicle: xmin -2.47489 -0.161927 0.0631, xmax 0 0.161927 0.5139m 
gts area: 4.03325 
yplus max: 3.89138, yplus min: 0.18593 
position of yplus max: -2.47422 0.16113 0.106396 
yplus prom: 0.937983 
forces: 0.100571 0.001195 -0.010888 
Drag coefficient: 0.747776 
torque (ref. CG): -0.000285 (roll) 0.010504 (pitch) -0.001479 (yaw) 
----------------------------------------------------- 
step 14, time 0.010500, maxvel 3.000000, total vol 359.697, vol(u>maxvel) 0, cell count 0
bounding box (containing cells with vel>maxvel): xmin inf inf inf, xmax -inf -inf -infm 
bounding box of vehicle: xmin -2.47489 -0.161927 0.0631, xmax 0 0.161927 0.5139m 
gts area: 4.03325 
yplus max: 3.90938, yplus min: 0.133623 
position of yplus max: -2.47422 0.16113 0.106396 
yplus prom: 0.939305 
forces: 0.101259 0.001191 -0.011017 
Drag coefficient: 0.752890 
torque (ref. CG): -0.000284 (roll) 0.010508 (pitch) -0.001473 (yaw) 
----------------------------------------------------- 
step 15, time 0.011250, maxvel 3.000000, total vol 359.697, vol(u>maxvel) 0, cell count 0
bounding box (containing cells with vel>maxvel): xmin inf inf inf, xmax -inf -inf -infm 
bounding box of vehicle: xmin -2.47489 -0.161927 0.0631, xmax 0 0.161927 0.5139m 
gts area: 4.03325 
yplus max: 3.92582, yplus min: 0.107912 
position of yplus max: -2.47422 0.16113 0.106396 
yplus prom: 0.940778 
forces: 0.101947 0.001185 -0.011141 
Drag coefficient: 0.758001 
torque (ref. CG): -0.000283 (roll) 0.010518 (pitch) -0.001467 (yaw) 
----------------------------------------------------- 
step 16, time 0.012000, maxvel 3.000000, total vol 359.697, vol(u>maxvel) 0, cell count 0
bounding box (containing cells with vel>maxvel): xmin inf inf inf, xmax -inf -inf -infm 
bounding box of vehicle: xmin -2.47489 -0.161927 0.0631, xmax 0 0.161927 0.5139m 
gts area: 4.03325 
yplus max: 3.94097, yplus min: 0.129831 
position of yplus max: -2.47422 0.16113 0.106396 
yplus prom: 0.942319 
forces: 0.102625 0.001183 -0.011264 
Drag coefficient: 0.763048 
torque (ref. CG): -0.000282 (roll) 0.010528 (pitch) -0.001463 (yaw) 
----------------------------------------------------- 
step 17, time 0.012750, maxvel 3.000000, total vol 359.697, vol(u>maxvel) 0, cell count 0
bounding box (containing cells with vel>maxvel): xmin inf inf inf, xmax -inf -inf -infm 
bounding box of vehicle: xmin -2.47489 -0.161927 0.0631, xmax 0 0.161927 0.5139m 
gts area: 4.03325 
yplus max: 3.955, yplus min: 0.114839 
position of yplus max: -2.47422 0.16113 0.106396 
yplus prom: 0.9439 
forces: 0.103292 0.001181 -0.011383 
Drag coefficient: 0.768004 
torque (ref. CG): -0.000281 (roll) 0.010540 (pitch) -0.001461 (yaw) 
----------------------------------------------------- 
step 18, time 0.013500, maxvel 3.000000, total vol 359.697, vol(u>maxvel) 0, cell count 0
bounding box (containing cells with vel>maxvel): xmin inf inf inf, xmax -inf -inf -infm 
bounding box of vehicle: xmin -2.47489 -0.161927 0.0631, xmax 0 0.161927 0.5139m 
gts area: 4.03325 
yplus max: 3.96796, yplus min: 0.122632 
position of yplus max: -2.47422 0.16113 0.106396 
yplus prom: 0.945505 
forces: 0.103947 0.001179 -0.011498 
Drag coefficient: 0.772874 
torque (ref. CG): -0.000281 (roll) 0.010553 (pitch) -0.001459 (yaw) 
----------------------------------------------------- 
step 19, time 0.014250, maxvel 3.000000, total vol 359.697, vol(u>maxvel) 0, cell count 0
bounding box (containing cells with vel>maxvel): xmin inf inf inf, xmax -inf -inf -infm 
bounding box of vehicle: xmin -2.47489 -0.161927 0.0631, xmax 0 0.161927 0.5139m 
gts area: 4.03325 
yplus max: 3.97995, yplus min: 0.0983465 
position of yplus max: -2.47422 0.16113 0.106396 
yplus prom: 0.947116 
forces: 0.104591 0.001178 -0.011612 
Drag coefficient: 0.777665 
torque (ref. CG): -0.000281 (roll) 0.010566 (pitch) -0.001458 (yaw) 
----------------------------------------------------- 
step 20, time 0.015000, maxvel 3.000000, total vol 359.697, vol(u>maxvel) 0, cell count 0
bounding box (containing cells with vel>maxvel): xmin inf inf inf, xmax -inf -inf -infm 
bounding box of vehicle: xmin -2.47489 -0.161927 0.0631, xmax 0 0.161927 0.5139m 
gts area: 4.03325 
yplus max: 3.99102, yplus min: 0.079986 
position of yplus max: -2.47422 0.16113 0.106396 
yplus prom: 0.94871 
forces: 0.105224 0.001177 -0.011722 
Drag coefficient: 0.782366 
torque (ref. CG): -0.000281 (roll) 0.010580 (pitch) -0.001456 (yaw) 
----------------------------------------------------- 
step 21, time 0.015750, maxvel 3.000000, total vol 359.697, vol(u>maxvel) 0, cell count 0
bounding box (containing cells with vel>maxvel): xmin inf inf inf, xmax -inf -inf -infm 
bounding box of vehicle: xmin -2.47489 -0.161927 0.0631, xmax 0 0.161927 0.5139m 
gts area: 4.03325 
yplus max: 4.00126, yplus min: 0.0984488 
position of yplus max: -2.47422 0.16113 0.106396 
yplus prom: 0.950279 
forces: 0.105845 0.001176 -0.011832 
Drag coefficient: 0.786983 
torque (ref. CG): -0.000280 (roll) 0.010593 (pitch) -0.001455 (yaw) 
----------------------------------------------------- 
step 22, time 0.016500, maxvel 3.000000, total vol 359.697, vol(u>maxvel) 0, cell count 0
bounding box (containing cells with vel>maxvel): xmin inf inf inf, xmax -inf -inf -infm 
bounding box of vehicle: xmin -2.47489 -0.161927 0.0631, xmax 0 0.161927 0.5139m 
gts area: 4.03325 
yplus max: 4.01069, yplus min: 0.0859359 
position of yplus max: -2.47422 0.16113 0.106396 
yplus prom: 0.951827 
forces: 0.106453 0.001175 -0.011939 
Drag coefficient: 0.791508 
torque (ref. CG): -0.000280 (roll) 0.010605 (pitch) -0.001454 (yaw) 
----------------------------------------------------- 
step 23, time 0.017250, maxvel 3.000000, total vol 359.697, vol(u>maxvel) 0, cell count 0
bounding box (containing cells with vel>maxvel): xmin inf inf inf, xmax -inf -inf -infm 
bounding box of vehicle: xmin -2.47489 -0.161927 0.0631, xmax 0 0.161927 0.5139m 
gts area: 4.03325 
yplus max: 4.01936, yplus min: 0.0802728 
position of yplus max: -2.47422 0.16113 0.106396 
yplus prom: 0.953341 
forces: 0.107051 0.001174 -0.012045 
Drag coefficient: 0.795954 
torque (ref. CG): -0.000280 (roll) 0.010617 (pitch) -0.001453 (yaw) 
----------------------------------------------------- 
step 24, time 0.018000, maxvel 3.000000, total vol 359.697, vol(u>maxvel) 0, cell count 0
bounding box (containing cells with vel>maxvel): xmin inf inf inf, xmax -inf -inf -infm 
bounding box of vehicle: xmin -2.47489 -0.161927 0.0631, xmax 0 0.161927 0.5139m 
gts area: 4.03325 
yplus max: 4.02733, yplus min: 0.0990482 
position of yplus max: -2.47422 0.16113 0.106396 
yplus prom: 0.954824 
forces: 0.107637 0.001174 -0.012147 
Drag coefficient: 0.800309 
torque (ref. CG): -0.000280 (roll) 0.010629 (pitch) -0.001453 (yaw) 
----------------------------------------------------- 
step 25, time 0.018750, maxvel 3.000000, total vol 359.697, vol(u>maxvel) 0, cell count 0
bounding box (containing cells with vel>maxvel): xmin inf inf inf, xmax -inf -inf -infm 
bounding box of vehicle: xmin -2.47489 -0.161927 0.0631, xmax 0 0.161927 0.5139m 
gts area: 4.03325 
yplus max: 4.03468, yplus min: 0.121218 
position of yplus max: -2.47422 0.16113 0.106396 
yplus prom: 0.956266 
forces: 0.108212 0.001173 -0.012249 
Drag coefficient: 0.804581 
torque (ref. CG): -0.000280 (roll) 0.010641 (pitch) -0.001452 (yaw) 
----------------------------------------------------- 
step 26, time 0.019500, maxvel 3.000000, total vol 359.697, vol(u>maxvel) 0, cell count 0
bounding box (containing cells with vel>maxvel): xmin inf inf inf, xmax -inf -inf -infm 
bounding box of vehicle: xmin -2.47489 -0.161927 0.0631, xmax 0 0.161927 0.5139m 
gts area: 4.03325 
yplus max: 4.04145, yplus min: 0.0735185 
position of yplus max: -2.47422 0.16113 0.106396 
yplus prom: 0.957665 
forces: 0.108775 0.001173 -0.012350 
Drag coefficient: 0.808769 
torque (ref. CG): -0.000280 (roll) 0.010650 (pitch) -0.001451 (yaw) 
----------------------------------------------------- 
step 27, time 0.020250, maxvel 3.000000, total vol 359.697, vol(u>maxvel) 0, cell count 0
bounding box (containing cells with vel>maxvel): xmin inf inf inf, xmax -inf -inf -infm 
bounding box of vehicle: xmin -2.47489 -0.161927 0.0631, xmax 0 0.161927 0.5139m 
gts area: 4.03325 
yplus max: 4.04767, yplus min: 0.115595 
position of yplus max: -2.47422 0.16113 0.106396 
yplus prom: 0.959026 
forces: 0.109326 0.001172 -0.012449 
Drag coefficient: 0.812866 
torque (ref. CG): -0.000279 (roll) 0.010659 (pitch) -0.001450 (yaw) 
----------------------------------------------------- 
step 28, time 0.021000, maxvel 3.000000, total vol 359.697, vol(u>maxvel) 0, cell count 0
bounding box (containing cells with vel>maxvel): xmin inf inf inf, xmax -inf -inf -infm 
bounding box of vehicle: xmin -2.47489 -0.161927 0.0631, xmax 0 0.161927 0.5139m 
gts area: 4.03325 
yplus max: 4.05372, yplus min: 0.116922 
position of yplus max: -2.47432 -0.160665 0.229698 
yplus prom: 0.960351 
forces: 0.109866 0.001172 -0.012547 
Drag coefficient: 0.816881 
torque (ref. CG): -0.000279 (roll) 0.010666 (pitch) -0.001450 (yaw) 
----------------------------------------------------- 
step 29, time 0.021750, maxvel 3.000000, total vol 359.697, vol(u>maxvel) 0, cell count 0
bounding box (containing cells with vel>maxvel): xmin inf inf inf, xmax -inf -inf -infm 
bounding box of vehicle: xmin -2.47489 -0.161927 0.0631, xmax 0 0.161927 0.5139m 
gts area: 4.03325 
yplus max: 4.05954, yplus min: 0.123571 
position of yplus max: -2.47432 -0.160665 0.229698 
yplus prom: 0.961637 
forces: 0.110395 0.001172 -0.012644 
Drag coefficient: 0.820815 
torque (ref. CG): -0.000279 (roll) 0.010672 (pitch) -0.001450 (yaw) 
----------------------------------------------------- 
step 30, time 0.022500, maxvel 3.000000, total vol 359.697, vol(u>maxvel) 0, cell count 0
bounding box (containing cells with vel>maxvel): xmin inf inf inf, xmax -inf -inf -infm 
bounding box of vehicle: xmin -2.47489 -0.161927 0.0631, xmax 0 0.161927 0.5139m 
gts area: 4.03325 
yplus max: 4.06493, yplus min: 0.109171 
position of yplus max: -2.47432 -0.160665 0.229698 
yplus prom: 0.962885 
forces: 0.110914 0.001173 -0.012740 
Drag coefficient: 0.824672 
torque (ref. CG): -0.000280 (roll) 0.010677 (pitch) -0.001451 (yaw) 
----------------------------------------------------- 
step 31, time 0.023250, maxvel 3.000000, total vol 359.697, vol(u>maxvel) 0, cell count 0
bounding box (containing cells with vel>maxvel): xmin inf inf inf, xmax -inf -inf -infm 
bounding box of vehicle: xmin -2.47489 -0.161927 0.0631, xmax 0 0.161927 0.5139m 
gts area: 4.03325 
yplus max: 4.06992, yplus min: 0.0951015 
position of yplus max: -2.47432 -0.160665 0.229698 
yplus prom: 0.964097 
forces: 0.111422 0.001173 -0.012835 
Drag coefficient: 0.828449 
torque (ref. CG): -0.000280 (roll) 0.010681 (pitch) -0.001451 (yaw) 
----------------------------------------------------- 
step 32, time 0.024000, maxvel 3.000000, total vol 359.697, vol(u>maxvel) 0, cell count 0
bounding box (containing cells with vel>maxvel): xmin inf inf inf, xmax -inf -inf -infm 
bounding box of vehicle: xmin -2.47489 -0.161927 0.0631, xmax 0 0.161927 0.5139m 
gts area: 4.03325 
yplus max: 4.07453, yplus min: 0.0830427 
position of yplus max: -2.47432 -0.160665 0.229698 
yplus prom: 0.965272 
forces: 0.111919 0.001173 -0.012929 
Drag coefficient: 0.832144 
torque (ref. CG): -0.000280 (roll) 0.010684 (pitch) -0.001452 (yaw) 
----------------------------------------------------- 
step 33, time 0.024750, maxvel 3.000000, total vol 359.697, vol(u>maxvel) 0, cell count 0
bounding box (containing cells with vel>maxvel): xmin inf inf inf, xmax -inf -inf -infm 
bounding box of vehicle: xmin -2.47489 -0.161927 0.0631, xmax 0 0.161927 0.5139m 
gts area: 4.03325 
yplus max: 4.07879, yplus min: 0.0770487 
position of yplus max: -2.47432 -0.160665 0.229698 
yplus prom: 0.966412 
forces: 0.112404 0.001174 -0.013022 
Drag coefficient: 0.835756 
torque (ref. CG): -0.000280 (roll) 0.010684 (pitch) -0.001452 (yaw) 
----------------------------------------------------- 
step 34, time 0.025500, maxvel 3.000000, total vol 359.697, vol(u>maxvel) 0, cell count 0
bounding box (containing cells with vel>maxvel): xmin inf inf inf, xmax -inf -inf -infm 
bounding box of vehicle: xmin -2.47489 -0.161927 0.0631, xmax 0 0.161927 0.5139m 
gts area: 4.03325 
yplus max: 4.0827, yplus min: 0.0802381 
position of yplus max: -2.47432 -0.160665 0.229698 
yplus prom: 0.967519 
forces: 0.112879 0.001174 -0.013114 
Drag coefficient: 0.839286 
torque (ref. CG): -0.000280 (roll) 0.010683 (pitch) -0.001453 (yaw) 
----------------------------------------------------- 
step 35, time 0.026250, maxvel 3.000000, total vol 359.697, vol(u>maxvel) 0, cell count 0
bounding box (containing cells with vel>maxvel): xmin inf inf inf, xmax -inf -inf -infm 
bounding box of vehicle: xmin -2.47489 -0.161927 0.0631, xmax 0 0.161927 0.5139m 
gts area: 4.03325 
yplus max: 4.0863, yplus min: 0.0848679 
position of yplus max: -2.47432 -0.160665 0.229698 
yplus prom: 0.968595 
forces: 0.113344 0.001175 -0.013206 
Drag coefficient: 0.842740 
torque (ref. CG): -0.000280 (roll) 0.010680 (pitch) -0.001454 (yaw) 
----------------------------------------------------- 
step 36, time 0.027000, maxvel 3.000000, total vol 359.697, vol(u>maxvel) 0, cell count 0
bounding box (containing cells with vel>maxvel): xmin inf inf inf, xmax -inf -inf -infm 
bounding box of vehicle: xmin -2.47489 -0.161927 0.0631, xmax 0 0.161927 0.5139m 
gts area: 4.03325 
yplus max: 4.0896, yplus min: 0.0739609 
position of yplus max: -2.47432 -0.160665 0.229698 
yplus prom: 0.96964 
forces: 0.113798 0.001176 -0.013297 
Drag coefficient: 0.846118 
torque (ref. CG): -0.000280 (roll) 0.010676 (pitch) -0.001455 (yaw) 
----------------------------------------------------- 
step 37, time 0.027750, maxvel 3.000000, total vol 359.697, vol(u>maxvel) 0, cell count 0
bounding box (containing cells with vel>maxvel): xmin inf inf inf, xmax -inf -inf -infm 
bounding box of vehicle: xmin -2.47489 -0.161927 0.0631, xmax 0 0.161927 0.5139m 
gts area: 4.03325 
yplus max: 4.09259, yplus min: 0.109766 
position of yplus max: -2.47432 -0.160665 0.229698 
yplus prom: 0.970653 
forces: 0.114242 0.001176 -0.013387 
Drag coefficient: 0.849421 
torque (ref. CG): -0.000280 (roll) 0.010671 (pitch) -0.001456 (yaw) 
----------------------------------------------------- 
step 38, time 0.028500, maxvel 3.000000, total vol 359.697, vol(u>maxvel) 0, cell count 0
bounding box (containing cells with vel>maxvel): xmin inf inf inf, xmax -inf -inf -infm 
bounding box of vehicle: xmin -2.47489 -0.161927 0.0631, xmax 0 0.161927 0.5139m 
gts area: 4.03325 
yplus max: 4.09527, yplus min: 0.119178 
position of yplus max: -2.47432 -0.160665 0.229698 
yplus prom: 0.971635 
forces: 0.114677 0.001177 -0.013476 
Drag coefficient: 0.852653 
torque (ref. CG): -0.000281 (roll) 0.010664 (pitch) -0.001456 (yaw) 
----------------------------------------------------- 
step 39, time 0.029250, maxvel 3.000000, total vol 359.697, vol(u>maxvel) 0, cell count 0
bounding box (containing cells with vel>maxvel): xmin inf inf inf, xmax -inf -inf -infm 
bounding box of vehicle: xmin -2.47489 -0.161927 0.0631, xmax 0 0.161927 0.5139m 
gts area: 4.03325 
yplus max: 4.09767, yplus min: 0.127868 
position of yplus max: -2.47432 -0.160665 0.229698 
yplus prom: 0.972582 
forces: 0.115102 0.001177 -0.013564 
Drag coefficient: 0.855811 
torque (ref. CG): -0.000281 (roll) 0.010656 (pitch) -0.001457 (yaw) 
----------------------------------------------------- 
step 40, time 0.030000, maxvel 3.000000, total vol 359.697, vol(u>maxvel) 0, cell count 0
bounding box (containing cells with vel>maxvel): xmin inf inf inf, xmax -inf -inf -infm 
bounding box of vehicle: xmin -2.47489 -0.161927 0.0631, xmax 0 0.161927 0.5139m 
gts area: 4.03325 
yplus max: 4.09979, yplus min: 0.0859624 
position of yplus max: -2.47432 -0.160665 0.229698 
yplus prom: 0.973497 
forces: 0.115516 0.001178 -0.013651 
Drag coefficient: 0.858894 
torque (ref. CG): -0.000281 (roll) 0.010647 (pitch) -0.001457 (yaw) 
----------------------------------------------------- 
step 41, time 0.030750, maxvel 3.000000, total vol 359.697, vol(u>maxvel) 0, cell count 0
bounding box (containing cells with vel>maxvel): xmin inf inf inf, xmax -inf -inf -infm 
bounding box of vehicle: xmin -2.47489 -0.161927 0.0631, xmax 0 0.161927 0.5139m 
gts area: 4.03325 
yplus max: 4.10166, yplus min: 0.133155 
position of yplus max: -2.47432 -0.160665 0.229698 
yplus prom: 0.974379 
forces: 0.115921 0.001178 -0.013738 
Drag coefficient: 0.861903 
torque (ref. CG): -0.000281 (roll) 0.010636 (pitch) -0.001458 (yaw) 
----------------------------------------------------- 
step 42, time 0.031500, maxvel 3.000000, total vol 359.697, vol(u>maxvel) 0, cell count 0
bounding box (containing cells with vel>maxvel): xmin inf inf inf, xmax -inf -inf -infm 
bounding box of vehicle: xmin -2.47489 -0.161927 0.0631, xmax 0 0.161927 0.5139m 
gts area: 4.03325 
yplus max: 4.10328, yplus min: 0.114392 
position of yplus max: -2.47432 -0.160665 0.229698 
yplus prom: 0.975229 
forces: 0.116316 0.001179 -0.013824 
Drag coefficient: 0.864842 
torque (ref. CG): -0.000281 (roll) 0.010624 (pitch) -0.001458 (yaw) 
----------------------------------------------------- 
step 43, time 0.032250, maxvel 3.000000, total vol 359.697, vol(u>maxvel) 0, cell count 0
bounding box (containing cells with vel>maxvel): xmin inf inf inf, xmax -inf -inf -infm 
bounding box of vehicle: xmin -2.47489 -0.161927 0.0631, xmax 0 0.161927 0.5139m 
gts area: 4.03325 
yplus max: 4.10467, yplus min: 0.107899 
position of yplus max: -2.47432 -0.160665 0.229698 
yplus prom: 0.976047 
forces: 0.116702 0.001179 -0.013910 
Drag coefficient: 0.867711 
torque (ref. CG): -0.000281 (roll) 0.010609 (pitch) -0.001459 (yaw) 
----------------------------------------------------- 
step 44, time 0.033000, maxvel 3.000000, total vol 359.697, vol(u>maxvel) 0, cell count 0
bounding box (containing cells with vel>maxvel): xmin inf inf inf, xmax -inf -inf -infm 
bounding box of vehicle: xmin -2.47489 -0.161927 0.0631, xmax 0 0.161927 0.5139m 
gts area: 4.03325 
yplus max: 4.10581, yplus min: 0.104543 
position of yplus max: -2.47432 -0.160665 0.229698 
yplus prom: 0.976833 
forces: 0.117078 0.001179 -0.013996 
Drag coefficient: 0.870508 
torque (ref. CG): -0.000281 (roll) 0.010593 (pitch) -0.001459 (yaw) 
----------------------------------------------------- 
step 45, time 0.033750, maxvel 3.000000, total vol 359.697, vol(u>maxvel) 0, cell count 0
bounding box (containing cells with vel>maxvel): xmin inf inf inf, xmax -inf -inf -infm 
bounding box of vehicle: xmin -2.47489 -0.161927 0.0631, xmax 0 0.161927 0.5139m 
gts area: 4.03325 
yplus max: 4.10669, yplus min: 0.0716493 
position of yplus max: -2.47432 -0.160665 0.229698 
yplus prom: 0.977586 
forces: 0.117445 0.001180 -0.014080 
Drag coefficient: 0.873236 
torque (ref. CG): -0.000281 (roll) 0.010576 (pitch) -0.001460 (yaw) 
----------------------------------------------------- 
step 46, time 0.034500, maxvel 3.000000, total vol 359.697, vol(u>maxvel) 0, cell count 0
bounding box (containing cells with vel>maxvel): xmin inf inf inf, xmax -inf -inf -infm 
bounding box of vehicle: xmin -2.47489 -0.161927 0.0631, xmax 0 0.161927 0.5139m 
gts area: 4.03325 
yplus max: 4.10735, yplus min: 0.0796751 
position of yplus max: -2.47432 -0.160665 0.229698 
yplus prom: 0.978311 
forces: 0.117803 0.001180 -0.014164 
Drag coefficient: 0.875894 
torque (ref. CG): -0.000281 (roll) 0.010557 (pitch) -0.001460 (yaw) 
----------------------------------------------------- 
step 47, time 0.035250, maxvel 3.000000, total vol 359.697, vol(u>maxvel) 0, cell count 0
bounding box (containing cells with vel>maxvel): xmin inf inf inf, xmax -inf -inf -infm 
bounding box of vehicle: xmin -2.47489 -0.161927 0.0631, xmax 0 0.161927 0.5139m 
gts area: 4.03325 
yplus max: 4.10778, yplus min: 0.112851 
position of yplus max: -2.47432 -0.160665 0.229698 
yplus prom: 0.979005 
forces: 0.118151 0.001180 -0.014247 
Drag coefficient: 0.878483 
torque (ref. CG): -0.000281 (roll) 0.010538 (pitch) -0.001460 (yaw) 
----------------------------------------------------- 
step 48, time 0.036000, maxvel 3.000000, total vol 359.697, vol(u>maxvel) 0, cell count 0
bounding box (containing cells with vel>maxvel): xmin inf inf inf, xmax -inf -inf -infm 
bounding box of vehicle: xmin -2.47489 -0.161927 0.0631, xmax 0 0.161927 0.5139m 
gts area: 4.03325 
yplus max: 4.10801, yplus min: 0.11922 
position of yplus max: -2.47432 -0.160665 0.229698 
yplus prom: 0.979668 
forces: 0.118490 0.001180 -0.014330 
Drag coefficient: 0.881002 
torque (ref. CG): -0.000281 (roll) 0.010516 (pitch) -0.001460 (yaw) 
----------------------------------------------------- 
step 49, time 0.036750, maxvel 3.000000, total vol 359.697, vol(u>maxvel) 0, cell count 0
bounding box (containing cells with vel>maxvel): xmin inf inf inf, xmax -inf -inf -infm 
bounding box of vehicle: xmin -2.47489 -0.161927 0.0631, xmax 0 0.161927 0.5139m 
gts area: 4.03325 
yplus max: 4.10806, yplus min: 0.0945105 
position of yplus max: -2.47432 -0.160665 0.229698 
yplus prom: 0.9803 
forces: 0.118819 0.001180 -0.014411 
Drag coefficient: 0.883452 
torque (ref. CG): -0.000281 (roll) 0.010494 (pitch) -0.001460 (yaw) 
----------------------------------------------------- 
step 50, time 0.037500, maxvel 3.000000, total vol 359.697, vol(u>maxvel) 0, cell count 0
bounding box (containing cells with vel>maxvel): xmin inf inf inf, xmax -inf -inf -infm 
bounding box of vehicle: xmin -2.47489 -0.161927 0.0631, xmax 0 0.161927 0.5139m 
gts area: 4.03325 
yplus max: 4.10793, yplus min: 0.0775713 
position of yplus max: -2.47432 -0.160665 0.229698 
yplus prom: 0.980901 
forces: 0.119140 0.001180 -0.014493 
Drag coefficient: 0.885836 
torque (ref. CG): -0.000281 (roll) 0.010470 (pitch) -0.001460 (yaw) 
----------------------------------------------------- 
step 51, time 0.038250, maxvel 3.000000, total vol 359.697, vol(u>maxvel) 0, cell count 0
bounding box (containing cells with vel>maxvel): xmin inf inf inf, xmax -inf -inf -infm 
bounding box of vehicle: xmin -2.47489 -0.161927 0.0631, xmax 0 0.161927 0.5139m 
gts area: 4.03325 
yplus max: 4.10763, yplus min: 0.0844336 
position of yplus max: -2.47432 -0.160665 0.229698 
yplus prom: 0.981473 
forces: 0.119452 0.001180 -0.014573 
Drag coefficient: 0.888156 
torque (ref. CG): -0.000281 (roll) 0.010445 (pitch) -0.001460 (yaw) 
----------------------------------------------------- 
step 52, time 0.039000, maxvel 3.000000, total vol 359.697, vol(u>maxvel) 0, cell count 0
bounding box (containing cells with vel>maxvel): xmin inf inf inf, xmax -inf -inf -infm 
bounding box of vehicle: xmin -2.47489 -0.161927 0.0631, xmax 0 0.161927 0.5139m 
gts area: 4.03325 
yplus max: 4.10718, yplus min: 0.103696 
position of yplus max: -2.47432 -0.160665 0.229698 
yplus prom: 0.982016 
forces: 0.119755 0.001180 -0.014652 
Drag coefficient: 0.890413 
torque (ref. CG): -0.000281 (roll) 0.010419 (pitch) -0.001461 (yaw) 
----------------------------------------------------- 
step 53, time 0.039750, maxvel 3.000000, total vol 359.697, vol(u>maxvel) 0, cell count 0
bounding box (containing cells with vel>maxvel): xmin inf inf inf, xmax -inf -inf -infm 
bounding box of vehicle: xmin -2.47489 -0.161927 0.0631, xmax 0 0.161927 0.5139m 
gts area: 4.03325 
yplus max: 4.10658, yplus min: 0.100153 
position of yplus max: -2.47432 -0.160665 0.229698 
yplus prom: 0.982533 
forces: 0.120050 0.001181 -0.014731 
Drag coefficient: 0.892607 
torque (ref. CG): -0.000281 (roll) 0.010392 (pitch) -0.001461 (yaw) 
----------------------------------------------------- 
step 54, time 0.040500, maxvel 3.000000, total vol 359.697, vol(u>maxvel) 0, cell count 0
bounding box (containing cells with vel>maxvel): xmin inf inf inf, xmax -inf -inf -infm 
bounding box of vehicle: xmin -2.47489 -0.161927 0.0631, xmax 0 0.161927 0.5139m 
gts area: 4.03325 
yplus max: 4.10585, yplus min: 0.0968679 
position of yplus max: -2.47432 -0.160665 0.229698 
yplus prom: 0.983021 
forces: 0.120338 0.001180 -0.014809 
Drag coefficient: 0.894742 
torque (ref. CG): -0.000281 (roll) 0.010364 (pitch) -0.001460 (yaw) 
----------------------------------------------------- 
step 55, time 0.041250, maxvel 3.000000, total vol 359.697, vol(u>maxvel) 0, cell count 0
bounding box (containing cells with vel>maxvel): xmin inf inf inf, xmax -inf -inf -infm 
bounding box of vehicle: xmin -2.47489 -0.161927 0.0631, xmax 0 0.161927 0.5139m 
gts area: 4.03325 
yplus max: 4.10499, yplus min: 0.0939256 
position of yplus max: -2.47432 -0.160665 0.229698 
yplus prom: 0.983481 
forces: 0.120617 0.001180 -0.014886 
Drag coefficient: 0.896816 
torque (ref. CG): -0.000281 (roll) 0.010335 (pitch) -0.001460 (yaw) 
----------------------------------------------------- 
step 56, time 0.042000, maxvel 3.000000, total vol 359.697, vol(u>maxvel) 0, cell count 0
bounding box (containing cells with vel>maxvel): xmin inf inf inf, xmax -inf -inf -infm 
bounding box of vehicle: xmin -2.47489 -0.161927 0.0631, xmax 0 0.161927 0.5139m 
gts area: 4.03325 
yplus max: 4.10402, yplus min: 0.0841088 
position of yplus max: -2.47432 -0.160665 0.229698 
yplus prom: 0.983914 
forces: 0.120888 0.001179 -0.014963 
Drag coefficient: 0.898831 
torque (ref. CG): -0.000281 (roll) 0.010305 (pitch) -0.001459 (yaw) 
----------------------------------------------------- 
step 57, time 0.042750, maxvel 3.000000, total vol 359.697, vol(u>maxvel) 0, cell count 0
bounding box (containing cells with vel>maxvel): xmin inf inf inf, xmax -inf -inf -infm 
bounding box of vehicle: xmin -2.47489 -0.161927 0.0631, xmax 0 0.161927 0.5139m 
gts area: 4.03325 
yplus max: 4.10293, yplus min: 0.038685 
position of yplus max: -2.47432 -0.160665 0.229698 
yplus prom: 0.984322 
forces: 0.121151 0.001179 -0.015038 
Drag coefficient: 0.900789 
torque (ref. CG): -0.000281 (roll) 0.010274 (pitch) -0.001458 (yaw) 
----------------------------------------------------- 
step 58, time 0.043500, maxvel 3.000000, total vol 359.697, vol(u>maxvel) 0, cell count 0
bounding box (containing cells with vel>maxvel): xmin inf inf inf, xmax -inf -inf -infm 
bounding box of vehicle: xmin -2.47489 -0.161927 0.0631, xmax 0 0.161927 0.5139m 
gts area: 4.03325 
yplus max: 4.10173, yplus min: 0.0672694 
position of yplus max: -2.47432 -0.160665 0.229698 
yplus prom: 0.984709 
forces: 0.121407 0.001178 -0.015113 
Drag coefficient: 0.902691 
torque (ref. CG): -0.000281 (roll) 0.010243 (pitch) -0.001458 (yaw) 
----------------------------------------------------- 
step 59, time 0.044250, maxvel 3.000000, total vol 359.697, vol(u>maxvel) 0, cell count 0
bounding box (containing cells with vel>maxvel): xmin inf inf inf, xmax -inf -inf -infm 
bounding box of vehicle: xmin -2.47489 -0.161927 0.0631, xmax 0 0.161927 0.5139m 
gts area: 4.03325 
yplus max: 4.10056, yplus min: 0.087479 
position of yplus max: -2.47443 -0.160585 0.219887 
yplus prom: 0.985072 
forces: 0.121655 0.001178 -0.015187 
Drag coefficient: 0.904534 
torque (ref. CG): -0.000281 (roll) 0.010210 (pitch) -0.001458 (yaw) 
----------------------------------------------------- 
step 60, time 0.045000, maxvel 3.000000, total vol 359.697, vol(u>maxvel) 0, cell count 0
bounding box (containing cells with vel>maxvel): xmin inf inf inf, xmax -inf -inf -infm 
bounding box of vehicle: xmin -2.47489 -0.161927 0.0631, xmax 0 0.161927 0.5139m 
gts area: 4.03325 
yplus max: 4.0994, yplus min: 0.087436 
position of yplus max: -2.47443 -0.160585 0.219887 
yplus prom: 0.985408 
forces: 0.121895 0.001178 -0.015260 
Drag coefficient: 0.906321 
torque (ref. CG): -0.000281 (roll) 0.010177 (pitch) -0.001457 (yaw) 
----------------------------------------------------- 
step 61, time 0.045750, maxvel 3.000000, total vol 359.697, vol(u>maxvel) 0, cell count 0
bounding box (containing cells with vel>maxvel): xmin inf inf inf, xmax -inf -inf -infm 
bounding box of vehicle: xmin -2.47489 -0.161927 0.0631, xmax 0 0.161927 0.5139m 
gts area: 4.03325 
yplus max: 4.09856, yplus min: 0.0840975 
position of yplus max: -2.47422 0.16113 0.106396 
yplus prom: 0.985718 
forces: 0.122128 0.001177 -0.015332 
Drag coefficient: 0.908052 
torque (ref. CG): -0.000281 (roll) 0.010143 (pitch) -0.001456 (yaw) 
----------------------------------------------------- 
step 62, time 0.046500, maxvel 3.000000, total vol 359.697, vol(u>maxvel) 0, cell count 0
bounding box (containing cells with vel>maxvel): xmin inf inf inf, xmax -inf -inf -infm 
bounding box of vehicle: xmin -2.47489 -0.161927 0.0631, xmax 0 0.161927 0.5139m 
gts area: 4.03325 
yplus max: 4.09786, yplus min: 0.0729028 
position of yplus max: -2.47422 0.16113 0.106396 
yplus prom: 0.986002 
forces: 0.122353 0.001176 -0.015404 
Drag coefficient: 0.909730 
torque (ref. CG): -0.000280 (roll) 0.010108 (pitch) -0.001456 (yaw) 
----------------------------------------------------- 
step 63, time 0.047250, maxvel 3.000000, total vol 359.697, vol(u>maxvel) 0, cell count 0
bounding box (containing cells with vel>maxvel): xmin inf inf inf, xmax -inf -inf -infm 
bounding box of vehicle: xmin -2.47489 -0.161927 0.0631, xmax 0 0.161927 0.5139m 
gts area: 4.03325 
yplus max: 4.09711, yplus min: 0.0728926 
position of yplus max: -2.47422 0.16113 0.106396 
yplus prom: 0.98626 
forces: 0.122572 0.001176 -0.015475 
Drag coefficient: 0.911353 
torque (ref. CG): -0.000280 (roll) 0.010072 (pitch) -0.001455 (yaw) 
----------------------------------------------------- 
step 64, time 0.048000, maxvel 3.000000, total vol 359.697, vol(u>maxvel) 0, cell count 0
bounding box (containing cells with vel>maxvel): xmin inf inf inf, xmax -inf -inf -infm 
bounding box of vehicle: xmin -2.47489 -0.161927 0.0631, xmax 0 0.161927 0.5139m 
gts area: 4.03325 
yplus max: 4.09632, yplus min: 0.080189 
position of yplus max: -2.47422 0.16113 0.106396 
yplus prom: 0.986497 
forces: 0.122783 0.001175 -0.015545 
Drag coefficient: 0.912925 
torque (ref. CG): -0.000280 (roll) 0.010036 (pitch) -0.001454 (yaw) 
----------------------------------------------------- 
step 65, time 0.048750, maxvel 3.000000, total vol 359.697, vol(u>maxvel) 0, cell count 0
bounding box (containing cells with vel>maxvel): xmin inf inf inf, xmax -inf -inf -infm 
bounding box of vehicle: xmin -2.47489 -0.161927 0.0631, xmax 0 0.161927 0.5139m 
gts area: 4.03325 
yplus max: 4.09549, yplus min: 0.0657668 
position of yplus max: -2.47422 0.16113 0.106396 
yplus prom: 0.986709 
forces: 0.122988 0.001174 -0.015615 
Drag coefficient: 0.914449 
torque (ref. CG): -0.000280 (roll) 0.009999 (pitch) -0.001453 (yaw) 
----------------------------------------------------- 
step 66, time 0.049500, maxvel 3.000000, total vol 359.697, vol(u>maxvel) 0, cell count 0
bounding box (containing cells with vel>maxvel): xmin inf inf inf, xmax -inf -inf -infm 
bounding box of vehicle: xmin -2.47489 -0.161927 0.0631, xmax 0 0.161927 0.5139m 
gts area: 4.03325 
yplus max: 4.09462, yplus min: 0.0817928 
position of yplus max: -2.47422 0.16113 0.106396 
yplus prom: 0.986899 
forces: 0.123187 0.001174 -0.015684 
Drag coefficient: 0.915926 
torque (ref. CG): -0.000280 (roll) 0.009961 (pitch) -0.001452 (yaw) 
----------------------------------------------------- 
step 67, time 0.050250, maxvel 3.000000, total vol 359.697, vol(u>maxvel) 0, cell count 0
bounding box (containing cells with vel>maxvel): xmin inf inf inf, xmax -inf -inf -infm 
bounding box of vehicle: xmin -2.47489 -0.161927 0.0631, xmax 0 0.161927 0.5139m 
gts area: 4.03325 
yplus max: 4.09372, yplus min: 0.0758916 
position of yplus max: -2.47422 0.16113 0.106396 
yplus prom: 0.987066 
forces: 0.123379 0.001173 -0.015752 
Drag coefficient: 0.917355 
torque (ref. CG): -0.000280 (roll) 0.009922 (pitch) -0.001451 (yaw) 
----------------------------------------------------- 
step 68, time 0.051000, maxvel 3.000000, total vol 359.697, vol(u>maxvel) 0, cell count 0
bounding box (containing cells with vel>maxvel): xmin inf inf inf, xmax -inf -inf -infm 
bounding box of vehicle: xmin -2.47489 -0.161927 0.0631, xmax 0 0.161927 0.5139m 
gts area: 4.03325 
yplus max: 4.09279, yplus min: 0.0674311 
position of yplus max: -2.47422 0.16113 0.106396 
yplus prom: 0.987212 
forces: 0.123565 0.001172 -0.015819 
Drag coefficient: 0.918739 
torque (ref. CG): -0.000279 (roll) 0.009883 (pitch) -0.001450 (yaw) 
----------------------------------------------------- 
step 69, time 0.051750, maxvel 3.000000, total vol 359.697, vol(u>maxvel) 0, cell count 0
bounding box (containing cells with vel>maxvel): xmin inf inf inf, xmax -inf -inf -infm 
bounding box of vehicle: xmin -2.47489 -0.161927 0.0631, xmax 0 0.161927 0.5139m 
gts area: 4.03325 
yplus max: 4.09183, yplus min: 0.0579558 
position of yplus max: -2.47422 0.16113 0.106396 
yplus prom: 0.987334 
forces: 0.123745 0.001171 -0.015886 
Drag coefficient: 0.920077 
torque (ref. CG): -0.000279 (roll) 0.009844 (pitch) -0.001449 (yaw) 
----------------------------------------------------- 
step 70, time 0.052500, maxvel 3.000000, total vol 359.697, vol(u>maxvel) 0, cell count 0
bounding box (containing cells with vel>maxvel): xmin inf inf inf, xmax -inf -inf -infm 
bounding box of vehicle: xmin -2.47489 -0.161927 0.0631, xmax 0 0.161927 0.5139m 
gts area: 4.03325 
yplus max: 4.09085, yplus min: 0.0364887 
position of yplus max: -2.47422 0.16113 0.106396 
yplus prom: 0.987435 
forces: 0.123919 0.001170 -0.015952 
Drag coefficient: 0.921370 
torque (ref. CG): -0.000279 (roll) 0.009803 (pitch) -0.001448 (yaw) 
----------------------------------------------------- 
step 71, time 0.053250, maxvel 3.000000, total vol 359.697, vol(u>maxvel) 0, cell count 0
bounding box (containing cells with vel>maxvel): xmin inf inf inf, xmax -inf -inf -infm 
bounding box of vehicle: xmin -2.47489 -0.161927 0.0631, xmax 0 0.161927 0.5139m 
gts area: 4.03325 
yplus max: 4.08985, yplus min: 0.0338534 
position of yplus max: -2.47422 0.16113 0.106396 
yplus prom: 0.987517 
forces: 0.124087 0.001169 -0.016017 
Drag coefficient: 0.922620 
torque (ref. CG): -0.000279 (roll) 0.009763 (pitch) -0.001446 (yaw) 
----------------------------------------------------- 
step 72, time 0.054000, maxvel 3.000000, total vol 359.697, vol(u>maxvel) 0, cell count 0
bounding box (containing cells with vel>maxvel): xmin inf inf inf, xmax -inf -inf -infm 
bounding box of vehicle: xmin -2.47489 -0.161927 0.0631, xmax 0 0.161927 0.5139m 
gts area: 4.03325 
yplus max: 4.08883, yplus min: 0.0265916 
position of yplus max: -2.47422 0.16113 0.106396 
yplus prom: 0.987578 
forces: 0.124250 0.001168 -0.016081 
Drag coefficient: 0.923829 
torque (ref. CG): -0.000278 (roll) 0.009722 (pitch) -0.001445 (yaw) 
----------------------------------------------------- 
step 73, time 0.054750, maxvel 3.000000, total vol 359.697, vol(u>maxvel) 0, cell count 0
bounding box (containing cells with vel>maxvel): xmin inf inf inf, xmax -inf -inf -infm 
bounding box of vehicle: xmin -2.47489 -0.161927 0.0631, xmax 0 0.161927 0.5139m 
gts area: 4.03325 
yplus max: 4.08779, yplus min: 0.0390103 
position of yplus max: -2.47422 0.16113 0.106396 
yplus prom: 0.987619 
forces: 0.124407 0.001166 -0.016145 
Drag coefficient: 0.924997 
torque (ref. CG): -0.000278 (roll) 0.009681 (pitch) -0.001443 (yaw) 
----------------------------------------------------- 
step 74, time 0.055500, maxvel 3.000000, total vol 359.697, vol(u>maxvel) 0, cell count 0
bounding box (containing cells with vel>maxvel): xmin inf inf inf, xmax -inf -inf -infm 
bounding box of vehicle: xmin -2.47489 -0.161927 0.0631, xmax 0 0.161927 0.5139m 
gts area: 4.03325 
yplus max: 4.08674, yplus min: 0.0507872 
position of yplus max: -2.47422 0.16113 0.106396 
yplus prom: 0.987638 
forces: 0.124558 0.001165 -0.016208 
Drag coefficient: 0.926124 
torque (ref. CG): -0.000278 (roll) 0.009639 (pitch) -0.001442 (yaw) 
----------------------------------------------------- 
step 75, time 0.056250, maxvel 3.000000, total vol 359.697, vol(u>maxvel) 0, cell count 0
bounding box (containing cells with vel>maxvel): xmin inf inf inf, xmax -inf -inf -infm 
bounding box of vehicle: xmin -2.47489 -0.161927 0.0631, xmax 0 0.161927 0.5139m 
gts area: 4.03325 
yplus max: 4.08567, yplus min: 0.0251148 
position of yplus max: -2.47422 0.16113 0.106396 
yplus prom: 0.987635 
forces: 0.124705 0.001164 -0.016270 
Drag coefficient: 0.927211 
torque (ref. CG): -0.000278 (roll) 0.009597 (pitch) -0.001440 (yaw) 
----------------------------------------------------- 
step 76, time 0.057000, maxvel 3.000000, total vol 359.697, vol(u>maxvel) 0, cell count 0
bounding box (containing cells with vel>maxvel): xmin inf inf inf, xmax -inf -inf -infm 
bounding box of vehicle: xmin -2.47489 -0.161927 0.0631, xmax 0 0.161927 0.5139m 
gts area: 4.03325 
yplus max: 4.0846, yplus min: 0.0493248 
position of yplus max: -2.47422 0.16113 0.106396 
yplus prom: 0.987615 
forces: 0.124846 0.001163 -0.016331 
Drag coefficient: 0.928261 
torque (ref. CG): -0.000277 (roll) 0.009555 (pitch) -0.001439 (yaw) 
----------------------------------------------------- 
step 77, time 0.057750, maxvel 3.000000, total vol 359.697, vol(u>maxvel) 0, cell count 0
bounding box (containing cells with vel>maxvel): xmin inf inf inf, xmax -inf -inf -infm 
bounding box of vehicle: xmin -2.47489 -0.161927 0.0631, xmax 0 0.161927 0.5139m 
gts area: 4.03325 
yplus max: 4.08352, yplus min: 0.0465634 
position of yplus max: -2.47422 0.16113 0.106396 
yplus prom: 0.987575 
forces: 0.124982 0.001162 -0.016392 
Drag coefficient: 0.929274 
torque (ref. CG): -0.000277 (roll) 0.009512 (pitch) -0.001437 (yaw) 
----------------------------------------------------- 
step 78, time 0.058500, maxvel 3.000000, total vol 359.697, vol(u>maxvel) 0, cell count 0
bounding box (containing cells with vel>maxvel): xmin inf inf inf, xmax -inf -inf -infm 
bounding box of vehicle: xmin -2.47489 -0.161927 0.0631, xmax 0 0.161927 0.5139m 
gts area: 4.03325 
yplus max: 4.08243, yplus min: 0.0550552 
position of yplus max: -2.47422 0.16113 0.106396 
yplus prom: 0.987519 
forces: 0.125113 0.001160 -0.016452 
Drag coefficient: 0.930251 
torque (ref. CG): -0.000277 (roll) 0.009470 (pitch) -0.001436 (yaw) 
----------------------------------------------------- 
step 79, time 0.059250, maxvel 3.000000, total vol 359.697, vol(u>maxvel) 0, cell count 0
bounding box (containing cells with vel>maxvel): xmin inf inf inf, xmax -inf -inf -infm 
bounding box of vehicle: xmin -2.47489 -0.161927 0.0631, xmax 0 0.161927 0.5139m 
gts area: 4.03325 
yplus max: 4.08133, yplus min: 0.0545739 
position of yplus max: -2.47422 0.16113 0.106396 
yplus prom: 0.987447 
forces: 0.125240 0.001159 -0.016511 
Drag coefficient: 0.931193 
torque (ref. CG): -0.000276 (roll) 0.009427 (pitch) -0.001434 (yaw) 
----------------------------------------------------- 
step 80, time 0.060000, maxvel 3.000000, total vol 359.697, vol(u>maxvel) 0, cell count 0
bounding box (containing cells with vel>maxvel): xmin inf inf inf, xmax -inf -inf -infm 
bounding box of vehicle: xmin -2.47489 -0.161927 0.0631, xmax 0 0.161927 0.5139m 
gts area: 4.03325 
yplus max: 4.08024, yplus min: 0.0677142 
position of yplus max: -2.47422 0.16113 0.106396 
yplus prom: 0.987359 
forces: 0.125362 0.001158 -0.016569 
Drag coefficient: 0.932099 
torque (ref. CG): -0.000276 (roll) 0.009383 (pitch) -0.001433 (yaw) 
----------------------------------------------------- 
step 81, time 0.060750, maxvel 3.000000, total vol 359.697, vol(u>maxvel) 0, cell count 0
bounding box (containing cells with vel>maxvel): xmin inf inf inf, xmax -inf -inf -infm 
bounding box of vehicle: xmin -2.47489 -0.161927 0.0631, xmax 0 0.161927 0.5139m 
gts area: 4.03325 
yplus max: 4.07913, yplus min: 0.0756886 
position of yplus max: -2.47422 0.16113 0.106396 
yplus prom: 0.987257 
forces: 0.125480 0.001157 -0.016627 
Drag coefficient: 0.932974 
torque (ref. CG): -0.000276 (roll) 0.009339 (pitch) -0.001432 (yaw) 
----------------------------------------------------- 
step 82, time 0.061500, maxvel 3.000000, total vol 359.697, vol(u>maxvel) 0, cell count 0
bounding box (containing cells with vel>maxvel): xmin inf inf inf, xmax -inf -inf -infm 
bounding box of vehicle: xmin -2.47489 -0.161927 0.0631, xmax 0 0.161927 0.5139m 
gts area: 4.03325 
yplus max: 4.07803, yplus min: 0.0833737 
position of yplus max: -2.47422 0.16113 0.106396 
yplus prom: 0.987139 
forces: 0.125593 0.001156 -0.016685 
Drag coefficient: 0.933816 
torque (ref. CG): -0.000276 (roll) 0.009296 (pitch) -0.001431 (yaw) 
----------------------------------------------------- 
step 83, time 0.062250, maxvel 3.000000, total vol 359.697, vol(u>maxvel) 0, cell count 0
bounding box (containing cells with vel>maxvel): xmin inf inf inf, xmax -inf -inf -infm 
bounding box of vehicle: xmin -2.47489 -0.161927 0.0631, xmax 0 0.161927 0.5139m 
gts area: 4.03325 
yplus max: 4.07692, yplus min: 0.0691971 
position of yplus max: -2.47422 0.16113 0.106396 
yplus prom: 0.987006 
forces: 0.125702 0.001156 -0.016742 
Drag coefficient: 0.934626 
torque (ref. CG): -0.000276 (roll) 0.009251 (pitch) -0.001430 (yaw) 
----------------------------------------------------- 
step 84, time 0.063000, maxvel 3.000000, total vol 359.697, vol(u>maxvel) 0, cell count 0
bounding box (containing cells with vel>maxvel): xmin inf inf inf, xmax -inf -inf -infm 
bounding box of vehicle: xmin -2.47489 -0.161927 0.0631, xmax 0 0.161927 0.5139m 
gts area: 4.03325 
yplus max: 4.07582, yplus min: 0.044731 
position of yplus max: -2.47422 0.16113 0.106396 
yplus prom: 0.986856 
forces: 0.125806 0.001155 -0.016798 
Drag coefficient: 0.935404 
torque (ref. CG): -0.000275 (roll) 0.009207 (pitch) -0.001430 (yaw) 
----------------------------------------------------- 
step 85, time 0.063750, maxvel 3.000000, total vol 359.697, vol(u>maxvel) 0, cell count 0
bounding box (containing cells with vel>maxvel): xmin inf inf inf, xmax -inf -inf -infm 
bounding box of vehicle: xmin -2.47489 -0.161927 0.0631, xmax 0 0.161927 0.5139m 
gts area: 4.03325 
yplus max: 4.07471, yplus min: 0.0930145 
position of yplus max: -2.47422 0.16113 0.106396 
yplus prom: 0.986692 
forces: 0.125907 0.001155 -0.016853 
Drag coefficient: 0.936151 
torque (ref. CG): -0.000275 (roll) 0.009162 (pitch) -0.001429 (yaw) 
----------------------------------------------------- 
step 86, time 0.064500, maxvel 3.000000, total vol 359.697, vol(u>maxvel) 0, cell count 0
bounding box (containing cells with vel>maxvel): xmin inf inf inf, xmax -inf -inf -infm 
bounding box of vehicle: xmin -2.47489 -0.161927 0.0631, xmax 0 0.161927 0.5139m 
gts area: 4.03325 
yplus max: 4.0736, yplus min: 0.109624 
position of yplus max: -2.47422 0.16113 0.106396 
yplus prom: 0.986513 
forces: 0.126003 0.001154 -0.016908 
Drag coefficient: 0.936868 
torque (ref. CG): -0.000275 (roll) 0.009117 (pitch) -0.001428 (yaw) 
----------------------------------------------------- 
step 87, time 0.065250, maxvel 3.000000, total vol 359.697, vol(u>maxvel) 0, cell count 0
bounding box (containing cells with vel>maxvel): xmin inf inf inf, xmax -inf -inf -infm 
bounding box of vehicle: xmin -2.47489 -0.161927 0.0631, xmax 0 0.161927 0.5139m 
gts area: 4.03325 
yplus max: 4.07249, yplus min: 0.0994154 
position of yplus max: -2.47422 0.16113 0.106396 
yplus prom: 0.98632 
forces: 0.126096 0.001153 -0.016962 
Drag coefficient: 0.937556 
torque (ref. CG): -0.000275 (roll) 0.009072 (pitch) -0.001427 (yaw) 
----------------------------------------------------- 
step 88, time 0.066000, maxvel 3.000000, total vol 359.697, vol(u>maxvel) 0, cell count 0
bounding box (containing cells with vel>maxvel): xmin inf inf inf, xmax -inf -inf -infm 
bounding box of vehicle: xmin -2.47489 -0.161927 0.0631, xmax 0 0.161927 0.5139m 
gts area: 4.03325 
yplus max: 4.07138, yplus min: 0.0981919 
position of yplus max: -2.47422 0.16113 0.106396 
yplus prom: 0.986112 
forces: 0.126185 0.001153 -0.017016 
Drag coefficient: 0.938215 
torque (ref. CG): -0.000275 (roll) 0.009027 (pitch) -0.001426 (yaw) 
----------------------------------------------------- 
step 89, time 0.066750, maxvel 3.000000, total vol 359.697, vol(u>maxvel) 0, cell count 0
bounding box (containing cells with vel>maxvel): xmin inf inf inf, xmax -inf -inf -infm 
bounding box of vehicle: xmin -2.47489 -0.161927 0.0631, xmax 0 0.161927 0.5139m 
gts area: 4.03325 
yplus max: 4.07028, yplus min: 0.0680705 
position of yplus max: -2.47422 0.16113 0.106396 
yplus prom: 0.985891 
forces: 0.126269 0.001152 -0.017069 
Drag coefficient: 0.938845 
torque (ref. CG): -0.000275 (roll) 0.008981 (pitch) -0.001425 (yaw) 
----------------------------------------------------- 
step 90, time 0.067500, maxvel 3.000000, total vol 359.697, vol(u>maxvel) 0, cell count 0
bounding box (containing cells with vel>maxvel): xmin inf inf inf, xmax -inf -inf -infm 
bounding box of vehicle: xmin -2.47489 -0.161927 0.0631, xmax 0 0.161927 0.5139m 
gts area: 4.03325 
yplus max: 4.06918, yplus min: 0.119033 
position of yplus max: -2.47422 0.16113 0.106396 
yplus prom: 0.985658 
forces: 0.126350 0.001151 -0.017122 
Drag coefficient: 0.939448 
torque (ref. CG): -0.000274 (roll) 0.008935 (pitch) -0.001424 (yaw) 
----------------------------------------------------- 
step 91, time 0.068250, maxvel 3.000000, total vol 359.697, vol(u>maxvel) 0, cell count 0
bounding box (containing cells with vel>maxvel): xmin inf inf inf, xmax -inf -inf -infm 
bounding box of vehicle: xmin -2.47489 -0.161927 0.0631, xmax 0 0.161927 0.5139m 
gts area: 4.03325 
yplus max: 4.06808, yplus min: 0.134905 
position of yplus max: -2.47422 0.16113 0.106396 
yplus prom: 0.985411 
forces: 0.126428 0.001150 -0.017174 
Drag coefficient: 0.940024 
torque (ref. CG): -0.000274 (roll) 0.008890 (pitch) -0.001423 (yaw) 
----------------------------------------------------- 
step 92, time 0.069000, maxvel 3.000000, total vol 359.697, vol(u>maxvel) 0, cell count 0
bounding box (containing cells with vel>maxvel): xmin inf inf inf, xmax -inf -inf -infm 
bounding box of vehicle: xmin -2.47489 -0.161927 0.0631, xmax 0 0.161927 0.5139m 
gts area: 4.03325 
yplus max: 4.06698, yplus min: 0.139273 
position of yplus max: -2.47422 0.16113 0.106396 
yplus prom: 0.985153 
forces: 0.126502 0.001149 -0.017225 
Drag coefficient: 0.940573 
torque (ref. CG): -0.000274 (roll) 0.008844 (pitch) -0.001422 (yaw) 
----------------------------------------------------- 
step 93, time 0.069750, maxvel 3.000000, total vol 359.697, vol(u>maxvel) 0, cell count 0
bounding box (containing cells with vel>maxvel): xmin inf inf inf, xmax -inf -inf -infm 
bounding box of vehicle: xmin -2.47489 -0.161927 0.0631, xmax 0 0.161927 0.5139m 
gts area: 4.03325 
yplus max: 4.06589, yplus min: 0.112691 
position of yplus max: -2.47422 0.16113 0.106396 
yplus prom: 0.984882 
forces: 0.126572 0.001148 -0.017276 
Drag coefficient: 0.941097 
torque (ref. CG): -0.000274 (roll) 0.008798 (pitch) -0.001421 (yaw) 
----------------------------------------------------- 
step 94, time 0.070500, maxvel 3.000000, total vol 359.697, vol(u>maxvel) 0, cell count 0
bounding box (containing cells with vel>maxvel): xmin inf inf inf, xmax -inf -inf -infm 
bounding box of vehicle: xmin -2.47489 -0.161927 0.0631, xmax 0 0.161927 0.5139m 
gts area: 4.03325 
yplus max: 4.06481, yplus min: 0.0457648 
position of yplus max: -2.47422 0.16113 0.106396 
yplus prom: 0.984599 
forces: 0.126639 0.001147 -0.017326 
Drag coefficient: 0.941597 
torque (ref. CG): -0.000274 (roll) 0.008752 (pitch) -0.001420 (yaw) 
----------------------------------------------------- 
step 95, time 0.071250, maxvel 3.000000, total vol 359.697, vol(u>maxvel) 0, cell count 0
bounding box (containing cells with vel>maxvel): xmin inf inf inf, xmax -inf -inf -infm 
bounding box of vehicle: xmin -2.47489 -0.161927 0.0631, xmax 0 0.161927 0.5139m 
gts area: 4.03325 
yplus max: 4.06373, yplus min: 0.098032 
position of yplus max: -2.47422 0.16113 0.106396 
yplus prom: 0.984307 
forces: 0.126703 0.001146 -0.017375 
Drag coefficient: 0.942072 
torque (ref. CG): -0.000273 (roll) 0.008706 (pitch) -0.001418 (yaw) 
----------------------------------------------------- 
step 96, time 0.072000, maxvel 3.000000, total vol 359.697, vol(u>maxvel) 0, cell count 0
bounding box (containing cells with vel>maxvel): xmin inf inf inf, xmax -inf -inf -infm 
bounding box of vehicle: xmin -2.47489 -0.161927 0.0631, xmax 0 0.161927 0.5139m 
gts area: 4.03325 
yplus max: 4.06265, yplus min: 0.0796792 
position of yplus max: -2.47422 0.16113 0.106396 
yplus prom: 0.984005 
forces: 0.126764 0.001145 -0.017424 
Drag coefficient: 0.942523 
torque (ref. CG): -0.000273 (roll) 0.008660 (pitch) -0.001417 (yaw) 
----------------------------------------------------- 
step 97, time 0.072750, maxvel 3.000000, total vol 359.697, vol(u>maxvel) 0, cell count 0
bounding box (containing cells with vel>maxvel): xmin inf inf inf, xmax -inf -inf -infm 
bounding box of vehicle: xmin -2.47489 -0.161927 0.0631, xmax 0 0.161927 0.5139m 
gts area: 4.03325 
yplus max: 4.06159, yplus min: 0.064126 
position of yplus max: -2.47422 0.16113 0.106396 
yplus prom: 0.983693 
forces: 0.126822 0.001144 -0.017472 
Drag coefficient: 0.942953 
torque (ref. CG): -0.000273 (roll) 0.008614 (pitch) -0.001416 (yaw) 
----------------------------------------------------- 
step 98, time 0.073500, maxvel 3.000000, total vol 359.697, vol(u>maxvel) 0, cell count 0
bounding box (containing cells with vel>maxvel): xmin inf inf inf, xmax -inf -inf -infm 
bounding box of vehicle: xmin -2.47489 -0.161927 0.0631, xmax 0 0.161927 0.5139m 
gts area: 4.03325 
yplus max: 4.06053, yplus min: 0.0678536 
position of yplus max: -2.47422 0.16113 0.106396 
yplus prom: 0.983371 
forces: 0.126877 0.001143 -0.017520 
Drag coefficient: 0.943360 
torque (ref. CG): -0.000272 (roll) 0.008568 (pitch) -0.001414 (yaw) 
----------------------------------------------------- 
step 99, time 0.074250, maxvel 3.000000, total vol 359.697, vol(u>maxvel) 0, cell count 0
bounding box (containing cells with vel>maxvel): xmin inf inf inf, xmax -inf -inf -infm 
bounding box of vehicle: xmin -2.47489 -0.161927 0.0631, xmax 0 0.161927 0.5139m 
gts area: 4.03325 
yplus max: 4.05948, yplus min: 0.0850116 
position of yplus max: -2.47422 0.16113 0.106396 
yplus prom: 0.983042 
forces: 0.126928 0.001142 -0.017567 
Drag coefficient: 0.943747 
torque (ref. CG): -0.000272 (roll) 0.008522 (pitch) -0.001413 (yaw) 
----------------------------------------------------- 
step 100, time 0.075000, maxvel 3.000000, total vol 359.697, vol(u>maxvel) 0, cell count 0
bounding box (containing cells with vel>maxvel): xmin inf inf inf, xmax -inf -inf -infm 
bounding box of vehicle: xmin -2.47489 -0.161927 0.0631, xmax 0 0.161927 0.5139m 
gts area: 4.03325 
yplus max: 4.05844, yplus min: 0.102202 
position of yplus max: -2.47422 0.16113 0.106396 
yplus prom: 0.982704 
forces: 0.126978 0.001141 -0.017614 
Drag coefficient: 0.944112 
torque (ref. CG): -0.000272 (roll) 0.008476 (pitch) -0.001412 (yaw) 
----------------------------------------------------- 
step 101, time 0.075750, maxvel 3.000000, total vol 359.697, vol(u>maxvel) 0, cell count 0
bounding box (containing cells with vel>maxvel): xmin inf inf inf, xmax -inf -inf -infm 
bounding box of vehicle: xmin -2.47489 -0.161927 0.0631, xmax 0 0.161927 0.5139m 
gts area: 4.03325 
yplus max: 4.05741, yplus min: 0.110321 
position of yplus max: -2.47422 0.16113 0.106396 
yplus prom: 0.982357 
forces: 0.127024 0.001140 -0.017660 
Drag coefficient: 0.944458 
torque (ref. CG): -0.000272 (roll) 0.008430 (pitch) -0.001411 (yaw) 
----------------------------------------------------- 
step 102, time 0.076500, maxvel 3.000000, total vol 359.697, vol(u>maxvel) 0, cell count 0
bounding box (containing cells with vel>maxvel): xmin inf inf inf, xmax -inf -inf -infm 
bounding box of vehicle: xmin -2.47489 -0.161927 0.0631, xmax 0 0.161927 0.5139m 
gts area: 4.03325 
yplus max: 4.05638, yplus min: 0.0760103 
position of yplus max: -2.47422 0.16113 0.106396 
yplus prom: 0.982001 
forces: 0.127068 0.001139 -0.017706 
Drag coefficient: 0.944783 
torque (ref. CG): -0.000272 (roll) 0.008383 (pitch) -0.001410 (yaw) 
----------------------------------------------------- 
step 103, time 0.077250, maxvel 3.000000, total vol 359.697, vol(u>maxvel) 0, cell count 0
bounding box (containing cells with vel>maxvel): xmin inf inf inf, xmax -inf -inf -infm 
bounding box of vehicle: xmin -2.47489 -0.161927 0.0631, xmax 0 0.161927 0.5139m 
gts area: 4.03325 
yplus max: 4.05537, yplus min: 0.116489 
position of yplus max: -2.47422 0.16113 0.106396 
yplus prom: 0.981639 
forces: 0.127111 0.001140 -0.017753 
Drag coefficient: 0.945103 
torque (ref. CG): -0.000272 (roll) 0.008336 (pitch) -0.001410 (yaw) 
----------------------------------------------------- 
step 104, time 0.078000, maxvel 3.000000, total vol 359.697, vol(u>maxvel) 0, cell count 0
bounding box (containing cells with vel>maxvel): xmin inf inf inf, xmax -inf -inf -infm 
bounding box of vehicle: xmin -2.47489 -0.161927 0.0631, xmax 0 0.161927 0.5139m 
gts area: 4.03325 
yplus max: 4.05437, yplus min: 0.104574 
position of yplus max: -2.47422 0.16113 0.106396 
yplus prom: 0.981269 
forces: 0.127148 0.001138 -0.017796 
Drag coefficient: 0.945379 
torque (ref. CG): -0.000271 (roll) 0.008291 (pitch) -0.001408 (yaw) 
----------------------------------------------------- 
step 105, time 0.078750, maxvel 3.000000, total vol 359.697, vol(u>maxvel) 0, cell count 0
bounding box (containing cells with vel>maxvel): xmin inf inf inf, xmax -inf -inf -infm 
bounding box of vehicle: xmin -2.47489 -0.161927 0.0631, xmax 0 0.161927 0.5139m 
gts area: 4.03325 
yplus max: 4.05339, yplus min: 0.114765 
position of yplus max: -2.47422 0.16113 0.106396 
yplus prom: 0.980893 
forces: 0.127184 0.001137 -0.017841 
Drag coefficient: 0.945647 
torque (ref. CG): -0.000271 (roll) 0.008245 (pitch) -0.001407 (yaw) 
----------------------------------------------------- 
step 106, time 0.079500, maxvel 3.000000, total vol 359.697, vol(u>maxvel) 0, cell count 0
bounding box (containing cells with vel>maxvel): xmin inf inf inf, xmax -inf -inf -infm 
bounding box of vehicle: xmin -2.47489 -0.161927 0.0631, xmax 0 0.161927 0.5139m 
gts area: 4.03325 
yplus max: 4.05241, yplus min: 0.146595 
position of yplus max: -2.47422 0.16113 0.106396 
yplus prom: 0.980511 
forces: 0.127218 0.001136 -0.017885 
Drag coefficient: 0.945898 
torque (ref. CG): -0.000271 (roll) 0.008198 (pitch) -0.001406 (yaw) 
----------------------------------------------------- 
step 107, time 0.080250, maxvel 3.000000, total vol 359.697, vol(u>maxvel) 0, cell count 0
bounding box (containing cells with vel>maxvel): xmin inf inf inf, xmax -inf -inf -infm 
bounding box of vehicle: xmin -2.47489 -0.161927 0.0631, xmax 0 0.161927 0.5139m 
gts area: 4.03325 
yplus max: 4.05145, yplus min: 0.172039 
position of yplus max: -2.47422 0.16113 0.106396 
yplus prom: 0.980123 
forces: 0.127249 0.001135 -0.017929 
Drag coefficient: 0.946131 
torque (ref. CG): -0.000271 (roll) 0.008151 (pitch) -0.001404 (yaw) 
----------------------------------------------------- 
step 108, time 0.081000, maxvel 3.000000, total vol 359.697, vol(u>maxvel) 0, cell count 0
bounding box (containing cells with vel>maxvel): xmin inf inf inf, xmax -inf -inf -infm 
bounding box of vehicle: xmin -2.47489 -0.161927 0.0631, xmax 0 0.161927 0.5139m 
gts area: 4.03325 
yplus max: 4.0505, yplus min: 0.140446 
position of yplus max: -2.47422 0.16113 0.106396 
yplus prom: 0.97973 
forces: 0.127278 0.001134 -0.017971 
Drag coefficient: 0.946347 
torque (ref. CG): -0.000270 (roll) 0.008106 (pitch) -0.001403 (yaw) 
----------------------------------------------------- 
step 109, time 0.081750, maxvel 3.000000, total vol 359.697, vol(u>maxvel) 0, cell count 0
bounding box (containing cells with vel>maxvel): xmin inf inf inf, xmax -inf -inf -infm 
bounding box of vehicle: xmin -2.47489 -0.161927 0.0631, xmax 0 0.161927 0.5139m 
gts area: 4.03325 
yplus max: 4.04956, yplus min: 0.0999472 
position of yplus max: -2.47422 0.16113 0.106396 
yplus prom: 0.979331 
forces: 0.127305 0.001133 -0.018014 
Drag coefficient: 0.946544 
torque (ref. CG): -0.000270 (roll) 0.008058 (pitch) -0.001402 (yaw) 
----------------------------------------------------- 
step 110, time 0.082500, maxvel 3.000000, total vol 359.697, vol(u>maxvel) 0, cell count 0
bounding box (containing cells with vel>maxvel): xmin inf inf inf, xmax -inf -inf -infm 
bounding box of vehicle: xmin -2.47489 -0.161927 0.0631, xmax 0 0.161927 0.5139m 
gts area: 4.03325 
yplus max: 4.04863, yplus min: 0.0576486 
position of yplus max: -2.47422 0.16113 0.106396 
yplus prom: 0.978928 
forces: 0.127330 0.001132 -0.018055 
Drag coefficient: 0.946730 
torque (ref. CG): -0.000270 (roll) 0.008014 (pitch) -0.001401 (yaw) 
----------------------------------------------------- 
step 111, time 0.083250, maxvel 3.000000, total vol 359.697, vol(u>maxvel) 0, cell count 0
bounding box (containing cells with vel>maxvel): xmin inf inf inf, xmax -inf -inf -infm 
bounding box of vehicle: xmin -2.47489 -0.161927 0.0631, xmax 0 0.161927 0.5139m 
gts area: 4.03325 
yplus max: 4.04772, yplus min: 0.0898704 
position of yplus max: -2.47422 0.16113 0.106396 
yplus prom: 0.978522 
forces: 0.127351 0.001130 -0.018098 
Drag coefficient: 0.946886 
torque (ref. CG): -0.000269 (roll) 0.007965 (pitch) -0.001398 (yaw) 
----------------------------------------------------- 
step 112, time 0.084000, maxvel 3.000000, total vol 359.697, vol(u>maxvel) 0, cell count 0
bounding box (containing cells with vel>maxvel): xmin inf inf inf, xmax -inf -inf -infm 
bounding box of vehicle: xmin -2.47489 -0.161927 0.0631, xmax 0 0.161927 0.5139m 
gts area: 4.03325 
yplus max: 4.04683, yplus min: 0.112527 
position of yplus max: -2.47422 0.16113 0.106396 
yplus prom: 0.978113 
forces: 0.127372 0.001130 -0.018140 
Drag coefficient: 0.947045 
torque (ref. CG): -0.000269 (roll) 0.007920 (pitch) -0.001398 (yaw) 
----------------------------------------------------- 
step 113, time 0.084750, maxvel 3.000000, total vol 359.697, vol(u>maxvel) 0, cell count 0
bounding box (containing cells with vel>maxvel): xmin inf inf inf, xmax -inf -inf -infm 
bounding box of vehicle: xmin -2.47489 -0.161927 0.0631, xmax 0 0.161927 0.5139m 
gts area: 4.03325 
yplus max: 4.04594, yplus min: 0.126055 
position of yplus max: -2.47422 0.16113 0.106396 
yplus prom: 0.9777 
forces: 0.127391 0.001130 -0.018179 
Drag coefficient: 0.947187 
torque (ref. CG): -0.000269 (roll) 0.007875 (pitch) -0.001398 (yaw) 
----------------------------------------------------- 
step 114, time 0.085500, maxvel 3.000000, total vol 359.697, vol(u>maxvel) 0, cell count 0
bounding box (containing cells with vel>maxvel): xmin inf inf inf, xmax -inf -inf -infm 
bounding box of vehicle: xmin -2.47489 -0.161927 0.0631, xmax 0 0.161927 0.5139m 
gts area: 4.03325 
yplus max: 4.04507, yplus min: 0.0950639 
position of yplus max: -2.47422 0.16113 0.106396 
yplus prom: 0.977281 
forces: 0.127406 0.001126 -0.018221 
Drag coefficient: 0.947296 
torque (ref. CG): -0.000269 (roll) 0.007826 (pitch) -0.001394 (yaw) 
----------------------------------------------------- 
step 115, time 0.086250, maxvel 3.000000, total vol 359.697, vol(u>maxvel) 0, cell count 0
bounding box (containing cells with vel>maxvel): xmin inf inf inf, xmax -inf -inf -infm 
bounding box of vehicle: xmin -2.47489 -0.161927 0.0631, xmax 0 0.161927 0.5139m 
gts area: 4.03325 
yplus max: 4.04422, yplus min: 0.0815734 
position of yplus max: -2.47422 0.16113 0.106396 
yplus prom: 0.976858 
forces: 0.127421 0.001128 -0.018262 
Drag coefficient: 0.947410 
torque (ref. CG): -0.000269 (roll) 0.007780 (pitch) -0.001395 (yaw) 
----------------------------------------------------- 
step 116, time 0.087000, maxvel 3.000000, total vol 359.697, vol(u>maxvel) 0, cell count 0
bounding box (containing cells with vel>maxvel): xmin inf inf inf, xmax -inf -inf -infm 
bounding box of vehicle: xmin -2.47489 -0.161927 0.0631, xmax 0 0.161927 0.5139m 
gts area: 4.03325 
yplus max: 4.04338, yplus min: 0.126149 
position of yplus max: -2.47422 0.16113 0.106396 
yplus prom: 0.976432 
forces: 0.127435 0.001126 -0.018302 
Drag coefficient: 0.947512 
torque (ref. CG): -0.000268 (roll) 0.007734 (pitch) -0.001393 (yaw) 
----------------------------------------------------- 
step 117, time 0.087750, maxvel 3.000000, total vol 359.697, vol(u>maxvel) 0, cell count 0
bounding box (containing cells with vel>maxvel): xmin inf inf inf, xmax -inf -inf -infm 
bounding box of vehicle: xmin -2.47489 -0.161927 0.0631, xmax 0 0.161927 0.5139m 
gts area: 4.03325 
yplus max: 4.04255, yplus min: 0.0967579 
position of yplus max: -2.47422 0.16113 0.106396 
yplus prom: 0.976 
forces: 0.127446 0.001125 -0.018341 
Drag coefficient: 0.947597 
torque (ref. CG): -0.000268 (roll) 0.007687 (pitch) -0.001392 (yaw) 
----------------------------------------------------- 
step 118, time 0.088500, maxvel 3.000000, total vol 359.697, vol(u>maxvel) 0, cell count 0
bounding box (containing cells with vel>maxvel): xmin inf inf inf, xmax -inf -inf -infm 
bounding box of vehicle: xmin -2.47489 -0.161927 0.0631, xmax 0 0.161927 0.5139m 
gts area: 4.03325 
yplus max: 4.04174, yplus min: 0.0672359 
position of yplus max: -2.47422 0.16113 0.106396 
yplus prom: 0.975564 
forces: 0.127456 0.001125 -0.018381 
Drag coefficient: 0.947668 
torque (ref. CG): -0.000268 (roll) 0.007641 (pitch) -0.001392 (yaw) 
----------------------------------------------------- 
step 119, time 0.089250, maxvel 3.000000, total vol 359.697, vol(u>maxvel) 0, cell count 0
bounding box (containing cells with vel>maxvel): xmin inf inf inf, xmax -inf -inf -infm 
bounding box of vehicle: xmin -2.47489 -0.161927 0.0631, xmax 0 0.161927 0.5139m 
gts area: 4.03325 
yplus max: 4.04094, yplus min: 0.109382 
position of yplus max: -2.47422 0.16113 0.106396 
yplus prom: 0.975125 
forces: 0.127464 0.001123 -0.018420 
Drag coefficient: 0.947727 
torque (ref. CG): -0.000268 (roll) 0.007594 (pitch) -0.001390 (yaw) 
----------------------------------------------------- 
step 120, time 0.090000, maxvel 3.000000, total vol 359.697, vol(u>maxvel) 0, cell count 0
bounding box (containing cells with vel>maxvel): xmin inf inf inf, xmax -inf -inf -infm 
bounding box of vehicle: xmin -2.47489 -0.161927 0.0631, xmax 0 0.161927 0.5139m 
gts area: 4.03325 
yplus max: 4.04016, yplus min: 0.10432 
position of yplus max: -2.47422 0.16113 0.106396 
yplus prom: 0.974681 
forces: 0.127470 0.001123 -0.018459 
Drag coefficient: 0.947772 
torque (ref. CG): -0.000268 (roll) 0.007547 (pitch) -0.001390 (yaw) 
----------------------------------------------------- 
step 121, time 0.090750, maxvel 3.000000, total vol 359.697, vol(u>maxvel) 0, cell count 0
bounding box (containing cells with vel>maxvel): xmin inf inf inf, xmax -inf -inf -infm 
bounding box of vehicle: xmin -2.47489 -0.161927 0.0631, xmax 0 0.161927 0.5139m 
gts area: 4.03325 
yplus max: 4.0394, yplus min: 0.101371 
position of yplus max: -2.47422 0.16113 0.106396 
yplus prom: 0.974234 
forces: 0.127475 0.001122 -0.018498 
Drag coefficient: 0.947809 
torque (ref. CG): -0.000268 (roll) 0.007500 (pitch) -0.001388 (yaw) 
----------------------------------------------------- 
step 122, time 0.091500, maxvel 3.000000, total vol 359.697, vol(u>maxvel) 0, cell count 0
bounding box (containing cells with vel>maxvel): xmin inf inf inf, xmax -inf -inf -infm 
bounding box of vehicle: xmin -2.47489 -0.161927 0.0631, xmax 0 0.161927 0.5139m 
gts area: 4.03325 
yplus max: 4.03865, yplus min: 0.101041 
position of yplus max: -2.47422 0.16113 0.106396 
yplus prom: 0.973783 
forces: 0.127478 0.001121 -0.018537 
Drag coefficient: 0.947831 
torque (ref. CG): -0.000267 (roll) 0.007454 (pitch) -0.001387 (yaw) 
----------------------------------------------------- 
step 123, time 0.092250, maxvel 3.000000, total vol 359.697, vol(u>maxvel) 0, cell count 0
bounding box (containing cells with vel>maxvel): xmin inf inf inf, xmax -inf -inf -infm 
bounding box of vehicle: xmin -2.47489 -0.161927 0.0631, xmax 0 0.161927 0.5139m 
gts area: 4.03325 
yplus max: 4.03792, yplus min: 0.103314 
position of yplus max: -2.47422 0.16113 0.106396 
yplus prom: 0.973329 
forces: 0.127479 0.001120 -0.018575 
Drag coefficient: 0.947839 
torque (ref. CG): -0.000267 (roll) 0.007407 (pitch) -0.001385 (yaw) 
----------------------------------------------------- 
step 124, time 0.093000, maxvel 3.000000, total vol 359.697, vol(u>maxvel) 0, cell count 0
bounding box (containing cells with vel>maxvel): xmin inf inf inf, xmax -inf -inf -infm 
bounding box of vehicle: xmin -2.47489 -0.161927 0.0631, xmax 0 0.161927 0.5139m 
gts area: 4.03325 
yplus max: 4.0372, yplus min: 0.107655 
position of yplus max: -2.47422 0.16113 0.106396 
yplus prom: 0.972874 
forces: 0.127478 0.001119 -0.018612 
Drag coefficient: 0.947836 
torque (ref. CG): -0.000267 (roll) 0.007360 (pitch) -0.001384 (yaw) 
----------------------------------------------------- 
step 125, time 0.093750, maxvel 3.000000, total vol 359.697, vol(u>maxvel) 0, cell count 0
bounding box (containing cells with vel>maxvel): xmin inf inf inf, xmax -inf -inf -infm 
bounding box of vehicle: xmin -2.47489 -0.161927 0.0631, xmax 0 0.161927 0.5139m 
gts area: 4.03325 
yplus max: 4.0365, yplus min: 0.113342 
position of yplus max: -2.47422 0.16113 0.106396 
yplus prom: 0.972417 
forces: 0.127477 0.001118 -0.018650 
Drag coefficient: 0.947822 
torque (ref. CG): -0.000267 (roll) 0.007313 (pitch) -0.001383 (yaw) 
----------------------------------------------------- 
step 126, time 0.094500, maxvel 3.000000, total vol 359.697, vol(u>maxvel) 0, cell count 0
bounding box (containing cells with vel>maxvel): xmin inf inf inf, xmax -inf -inf -infm 
bounding box of vehicle: xmin -2.47489 -0.161927 0.0631, xmax 0 0.161927 0.5139m 
gts area: 4.03325 
yplus max: 4.03582, yplus min: 0.11976 
position of yplus max: -2.47422 0.16113 0.106396 
yplus prom: 0.971959 
forces: 0.127473 0.001117 -0.018687 
Drag coefficient: 0.947799 
torque (ref. CG): -0.000266 (roll) 0.007266 (pitch) -0.001382 (yaw) 
----------------------------------------------------- 
step 127, time 0.095250, maxvel 3.000000, total vol 359.697, vol(u>maxvel) 0, cell count 0
bounding box (containing cells with vel>maxvel): xmin inf inf inf, xmax -inf -inf -infm 
bounding box of vehicle: xmin -2.47489 -0.161927 0.0631, xmax 0 0.161927 0.5139m 
gts area: 4.03325 
yplus max: 4.03515, yplus min: 0.102831 
position of yplus max: -2.47422 0.16113 0.106396 
yplus prom: 0.971499 
forces: 0.127469 0.001115 -0.018724 
Drag coefficient: 0.947765 
torque (ref. CG): -0.000266 (roll) 0.007220 (pitch) -0.001380 (yaw) 
----------------------------------------------------- 
step 128, time 0.096000, maxvel 3.000000, total vol 359.697, vol(u>maxvel) 0, cell count 0
bounding box (containing cells with vel>maxvel): xmin inf inf inf, xmax -inf -inf -infm 
bounding box of vehicle: xmin -2.47489 -0.161927 0.0631, xmax 0 0.161927 0.5139m 
gts area: 4.03325 
yplus max: 4.0345, yplus min: 0.0875989 
position of yplus max: -2.47422 0.16113 0.106396 
yplus prom: 0.97104 
forces: 0.127462 0.001114 -0.018761 
Drag coefficient: 0.947712 
torque (ref. CG): -0.000266 (roll) 0.007171 (pitch) -0.001378 (yaw) 
----------------------------------------------------- 
step 129, time 0.096750, maxvel 3.000000, total vol 359.697, vol(u>maxvel) 0, cell count 0
bounding box (containing cells with vel>maxvel): xmin inf inf inf, xmax -inf -inf -infm 
bounding box of vehicle: xmin -2.47489 -0.161927 0.0631, xmax 0 0.161927 0.5139m 
gts area: 4.03325 
yplus max: 4.03387, yplus min: 0.106465 
position of yplus max: -2.47422 0.16113 0.106396 
yplus prom: 0.970583 
forces: 0.127455 0.001116 -0.018797 
Drag coefficient: 0.947660 
torque (ref. CG): -0.000266 (roll) 0.007125 (pitch) -0.001380 (yaw) 
----------------------------------------------------- 
step 130, time 0.097500, maxvel 3.000000, total vol 359.697, vol(u>maxvel) 0, cell count 0
bounding box (containing cells with vel>maxvel): xmin inf inf inf, xmax -inf -inf -infm 
bounding box of vehicle: xmin -2.47489 -0.161927 0.0631, xmax 0 0.161927 0.5139m 
gts area: 4.03325 
yplus max: 4.03325, yplus min: 0.135402 
position of yplus max: -2.47422 0.16113 0.106396 
yplus prom: 0.970128 
forces: 0.127446 0.001113 -0.018833 
Drag coefficient: 0.947597 
torque (ref. CG): -0.000265 (roll) 0.007079 (pitch) -0.001377 (yaw) 
----------------------------------------------------- 
step 131, time 0.098250, maxvel 3.000000, total vol 359.697, vol(u>maxvel) 0, cell count 0
bounding box (containing cells with vel>maxvel): xmin inf inf inf, xmax -inf -inf -infm 
bounding box of vehicle: xmin -2.47489 -0.161927 0.0631, xmax 0 0.161927 0.5139m 
gts area: 4.03325 
yplus max: 4.03265, yplus min: 0.105026 
position of yplus max: -2.47422 0.16113 0.106396 
yplus prom: 0.969671 
forces: 0.127435 0.001112 -0.018870 
Drag coefficient: 0.947514 
torque (ref. CG): -0.000265 (roll) 0.007031 (pitch) -0.001376 (yaw) 
----------------------------------------------------- 
step 132, time 0.099000, maxvel 3.000000, total vol 359.697, vol(u>maxvel) 0, cell count 0
bounding box (containing cells with vel>maxvel): xmin inf inf inf, xmax -inf -inf -infm 
bounding box of vehicle: xmin -2.47489 -0.161927 0.0631, xmax 0 0.161927 0.5139m 
gts area: 4.03325 
yplus max: 4.03207, yplus min: 0.0941741 
position of yplus max: -2.47422 0.16113 0.106396 
yplus prom: 0.969214 
forces: 0.127425 0.001111 -0.018905 
Drag coefficient: 0.947438 
torque (ref. CG): -0.000265 (roll) 0.006986 (pitch) -0.001375 (yaw) 
----------------------------------------------------- 
step 133, time 0.099750, maxvel 3.000000, total vol 359.697, vol(u>maxvel) 0, cell count 0
bounding box (containing cells with vel>maxvel): xmin inf inf inf, xmax -inf -inf -infm 
bounding box of vehicle: xmin -2.47489 -0.161927 0.0631, xmax 0 0.161927 0.5139m 
gts area: 4.03325 
yplus max: 4.03151, yplus min: 0.120583 
position of yplus max: -2.47422 0.16113 0.106396 
yplus prom: 0.968757 
forces: 0.127412 0.001111 -0.018940 
Drag coefficient: 0.947343 
torque (ref. CG): -0.000265 (roll) 0.006938 (pitch) -0.001375 (yaw) 
----------------------------------------------------- 
step 134, time 0.100500, maxvel 3.000000, total vol 359.697, vol(u>maxvel) 0, cell count 0
bounding box (containing cells with vel>maxvel): xmin inf inf inf, xmax -inf -inf -infm 
bounding box of vehicle: xmin -2.47489 -0.161927 0.0631, xmax 0 0.161927 0.5139m 
gts area: 4.03325 
yplus max: 4.03096, yplus min: 0.112113 
position of yplus max: -2.47422 0.16113 0.106396 
yplus prom: 0.968299 
forces: 0.127398 0.001110 -0.018975 
Drag coefficient: 0.947236 
torque (ref. CG): -0.000265 (roll) 0.006892 (pitch) -0.001373 (yaw) 
----------------------------------------------------- 
step 135, time 0.101250, maxvel 3.000000, total vol 359.697, vol(u>maxvel) 0, cell count 0
bounding box (containing cells with vel>maxvel): xmin inf inf inf, xmax -inf -inf -infm 
bounding box of vehicle: xmin -2.47489 -0.161927 0.0631, xmax 0 0.161927 0.5139m 
gts area: 4.03325 
yplus max: 4.03043, yplus min: 0.0664069 
position of yplus max: -2.47422 0.16113 0.106396 
yplus prom: 0.967841 
forces: 0.127383 0.001109 -0.019010 
Drag coefficient: 0.947129 
torque (ref. CG): -0.000264 (roll) 0.006845 (pitch) -0.001373 (yaw) 
[...]
----------------------------------------------------- 
step 1361, time 1.020750, maxvel 3.000000, total vol 359.697, vol(u>maxvel) 0, cell count 0
bounding box (containing cells with vel>maxvel): xmin inf inf inf, xmax -inf -inf -infm 
bounding box of vehicle: xmin -2.47489 -0.161927 0.0631, xmax 0 0.161927 0.5139m 
gts area: 4.03325 
yplus max: 3.76891, yplus min: 0.100193 
position of yplus max: -2.47422 0.16113 0.106396 
yplus prom: 0.810271 
forces: 0.093593 0.000765 -0.025244 
Drag coefficient: 0.695889 
torque (ref. CG): -0.000182 (roll) -0.008924 (pitch) -0.000946 (yaw) 
----------------------------------------------------- 
step 1362, time 1.021500, maxvel 3.000000, total vol 359.697, vol(u>maxvel) 0, cell count 0
bounding box (containing cells with vel>maxvel): xmin inf inf inf, xmax -inf -inf -infm 
bounding box of vehicle: xmin -2.47489 -0.161927 0.0631, xmax 0 0.161927 0.5139m 
gts area: 4.03325 
yplus max: 3.7688, yplus min: 0.100194 
position of yplus max: -2.47422 0.16113 0.106396 
yplus prom: 0.81026 
forces: 0.093587 0.000765 -0.025243 
Drag coefficient: 0.695844 
torque (ref. CG): -0.000182 (roll) -0.008925 (pitch) -0.000946 (yaw) 
----------------------------------------------------- 
step 1363, time 1.022250, maxvel 3.000000, total vol 359.697, vol(u>maxvel) 0, cell count 0
bounding box (containing cells with vel>maxvel): xmin inf inf inf, xmax -inf -inf -infm 
bounding box of vehicle: xmin -2.47489 -0.161927 0.0631, xmax 0 0.161927 0.5139m 
gts area: 4.03325 
yplus max: 3.76868, yplus min: 0.100195 
position of yplus max: -2.47422 0.16113 0.106396 
yplus prom: 0.810248 
forces: 0.093579 0.000764 -0.025243 
Drag coefficient: 0.695784 
torque (ref. CG): -0.000182 (roll) -0.008926 (pitch) -0.000946 (yaw) 
----------------------------------------------------- 
step 1364, time 1.023000, maxvel 3.000000, total vol 359.697, vol(u>maxvel) 0, cell count 0
bounding box (containing cells with vel>maxvel): xmin inf inf inf, xmax -inf -inf -infm 
bounding box of vehicle: xmin -2.47489 -0.161927 0.0631, xmax 0 0.161927 0.5139m 
gts area: 4.03325 
yplus max: 3.76856, yplus min: 0.100195 
position of yplus max: -2.47422 0.16113 0.106396 
yplus prom: 0.810237 
forces: 0.093570 0.000764 -0.025241 
Drag coefficient: 0.695714 
torque (ref. CG): -0.000182 (roll) -0.008926 (pitch) -0.000945 (yaw) 
----------------------------------------------------- 
step 1365, time 1.023750, maxvel 3.000000, total vol 359.697, vol(u>maxvel) 0, cell count 0
bounding box (containing cells with vel>maxvel): xmin inf inf inf, xmax -inf -inf -infm 
bounding box of vehicle: xmin -2.47489 -0.161927 0.0631, xmax 0 0.161927 0.5139m 
gts area: 4.03325 
yplus max: 3.76845, yplus min: 0.100195 
position of yplus max: -2.47422 0.16113 0.106396 
yplus prom: 0.810225 
forces: 0.093563 0.000763 -0.025240 
Drag coefficient: 0.695669 
torque (ref. CG): -0.000182 (roll) -0.008927 (pitch) -0.000945 (yaw) 
----------------------------------------------------- 
step 1366, time 1.024500, maxvel 3.000000, total vol 359.697, vol(u>maxvel) 0, cell count 0
bounding box (containing cells with vel>maxvel): xmin inf inf inf, xmax -inf -inf -infm 
bounding box of vehicle: xmin -2.47489 -0.161927 0.0631, xmax 0 0.161927 0.5139m 
gts area: 4.03325 
yplus max: 3.76833, yplus min: 0.100196 
position of yplus max: -2.47422 0.16113 0.106396 
yplus prom: 0.810214 
forces: 0.093555 0.000763 -0.025240 
Drag coefficient: 0.695609 
torque (ref. CG): -0.000182 (roll) -0.008928 (pitch) -0.000944 (yaw) 
----------------------------------------------------- 
step 1367, time 1.025250, maxvel 3.000000, total vol 359.697, vol(u>maxvel) 0, cell count 0
bounding box (containing cells with vel>maxvel): xmin inf inf inf, xmax -inf -inf -infm 
bounding box of vehicle: xmin -2.47489 -0.161927 0.0631, xmax 0 0.161927 0.5139m 
gts area: 4.03325 
yplus max: 3.76821, yplus min: 0.100195 
position of yplus max: -2.47422 0.16113 0.106396 
yplus prom: 0.810202 
forces: 0.093546 0.000762 -0.025238 
Drag coefficient: 0.695540 
torque (ref. CG): -0.000182 (roll) -0.008928 (pitch) -0.000943 (yaw) 
----------------------------------------------------- 
step 1368, time 1.026000, maxvel 3.000000, total vol 359.697, vol(u>maxvel) 0, cell count 0
bounding box (containing cells with vel>maxvel): xmin inf inf inf, xmax -inf -inf -infm 
bounding box of vehicle: xmin -2.47489 -0.161927 0.0631, xmax 0 0.161927 0.5139m 
gts area: 4.03325 
yplus max: 3.7681, yplus min: 0.100196 
position of yplus max: -2.47422 0.16113 0.106396 
yplus prom: 0.810191 
forces: 0.093540 0.000762 -0.025238 
Drag coefficient: 0.695495 
torque (ref. CG): -0.000182 (roll) -0.008929 (pitch) -0.000943 (yaw) 
----------------------------------------------------- 
step 1369, time 1.026750, maxvel 3.000000, total vol 359.697, vol(u>maxvel) 0, cell count 0
bounding box (containing cells with vel>maxvel): xmin inf inf inf, xmax -inf -inf -infm 
bounding box of vehicle: xmin -2.47489 -0.161927 0.0631, xmax 0 0.161927 0.5139m 
gts area: 4.03325 
yplus max: 3.76798, yplus min: 0.100197 
position of yplus max: -2.47422 0.16113 0.106396 
yplus prom: 0.810179 
forces: 0.093532 0.000762 -0.025237 
Drag coefficient: 0.695435 
torque (ref. CG): -0.000182 (roll) -0.008930 (pitch) -0.000943 (yaw) 
----------------------------------------------------- 
step 1370, time 1.027500, maxvel 3.000000, total vol 359.697, vol(u>maxvel) 0, cell count 0
bounding box (containing cells with vel>maxvel): xmin inf inf inf, xmax -inf -inf -infm 
bounding box of vehicle: xmin -2.47489 -0.161927 0.0631, xmax 0 0.161927 0.5139m 
gts area: 4.03325 
yplus max: 3.76786, yplus min: 0.100196 
position of yplus max: -2.47422 0.16113 0.106396 
yplus prom: 0.810168 
forces: 0.093523 0.000761 -0.025235 
Drag coefficient: 0.695366 
torque (ref. CG): -0.000181 (roll) -0.008931 (pitch) -0.000942 (yaw) 
----------------------------------------------------- 
step 1371, time 1.028250, maxvel 3.000000, total vol 359.697, vol(u>maxvel) 0, cell count 0
bounding box (containing cells with vel>maxvel): xmin inf inf inf, xmax -inf -inf -infm 
bounding box of vehicle: xmin -2.47489 -0.161927 0.0631, xmax 0 0.161927 0.5139m 
gts area: 4.03325 
yplus max: 3.76775, yplus min: 0.100196 
position of yplus max: -2.47422 0.16113 0.106396 
yplus prom: 0.810157 
forces: 0.093517 0.000761 -0.025235 
Drag coefficient: 0.695321 
torque (ref. CG): -0.000181 (roll) -0.008931 (pitch) -0.000942 (yaw) 
----------------------------------------------------- 
step 1372, time 1.029000, maxvel 3.000000, total vol 359.697, vol(u>maxvel) 0, cell count 0
bounding box (containing cells with vel>maxvel): xmin inf inf inf, xmax -inf -inf -infm 
bounding box of vehicle: xmin -2.47489 -0.161927 0.0631, xmax 0 0.161927 0.5139m 
gts area: 4.03325 
yplus max: 3.76764, yplus min: 0.100197 
position of yplus max: -2.47422 0.16113 0.106396 
yplus prom: 0.810145 
forces: 0.093509 0.000761 -0.025234 
Drag coefficient: 0.695261 
torque (ref. CG): -0.000181 (roll) -0.008932 (pitch) -0.000941 (yaw) 
----------------------------------------------------- 
step 1373, time 1.029750, maxvel 3.000000, total vol 359.697, vol(u>maxvel) 0, cell count 0
bounding box (containing cells with vel>maxvel): xmin inf inf inf, xmax -inf -inf -infm 
bounding box of vehicle: xmin -2.47489 -0.161927 0.0631, xmax 0 0.161927 0.5139m 
gts area: 4.03325 
yplus max: 3.76752, yplus min: 0.100196 
position of yplus max: -2.47422 0.16113 0.106396 
yplus prom: 0.810134 
forces: 0.093499 0.000760 -0.025233 
Drag coefficient: 0.695193 
torque (ref. CG): -0.000181 (roll) -0.008933 (pitch) -0.000940 (yaw) 
----------------------------------------------------- 
step 1374, time 1.030500, maxvel 3.000000, total vol 359.697, vol(u>maxvel) 0, cell count 0
bounding box (containing cells with vel>maxvel): xmin inf inf inf, xmax -inf -inf -infm 
bounding box of vehicle: xmin -2.47489 -0.161927 0.0631, xmax 0 0.161927 0.5139m 
gts area: 4.03325 
yplus max: 3.7674, yplus min: 0.100197 
position of yplus max: -2.47422 0.16113 0.106396 
yplus prom: 0.810123 
forces: 0.093493 0.000760 -0.025232 
Drag coefficient: 0.695148 
torque (ref. CG): -0.000181 (roll) -0.008933 (pitch) -0.000940 (yaw) 
----------------------------------------------------- 
step 1375, time 1.031250, maxvel 3.000000, total vol 359.697, vol(u>maxvel) 0, cell count 0
bounding box (containing cells with vel>maxvel): xmin inf inf inf, xmax -inf -inf -infm 
bounding box of vehicle: xmin -2.47489 -0.161927 0.0631, xmax 0 0.161927 0.5139m 
gts area: 4.03325 
yplus max: 3.76729, yplus min: 0.100197 
position of yplus max: -2.47422 0.16113 0.106396 
yplus prom: 0.810112 
forces: 0.093485 0.000759 -0.025231 
Drag coefficient: 0.695088 
torque (ref. CG): -0.000181 (roll) -0.008934 (pitch) -0.000940 (yaw) 
----------------------------------------------------- 
step 1376, time 1.032000, maxvel 3.000000, total vol 359.697, vol(u>maxvel) 0, cell count 0
bounding box (containing cells with vel>maxvel): xmin inf inf inf, xmax -inf -inf -infm 
bounding box of vehicle: xmin -2.47489 -0.161927 0.0631, xmax 0 0.161927 0.5139m 
gts area: 4.03325 
yplus max: 3.76717, yplus min: 0.100197 
position of yplus max: -2.47422 0.16113 0.106396 
yplus prom: 0.810101 
forces: 0.093476 0.000759 -0.025230 
Drag coefficient: 0.695020 
torque (ref. CG): -0.000181 (roll) -0.008935 (pitch) -0.000939 (yaw) 
----------------------------------------------------- 
step 1377, time 1.032750, maxvel 3.000000, total vol 359.697, vol(u>maxvel) 0, cell count 0
bounding box (containing cells with vel>maxvel): xmin inf inf inf, xmax -inf -inf -infm 
bounding box of vehicle: xmin -2.47489 -0.161927 0.0631, xmax 0 0.161927 0.5139m 
gts area: 4.03325 
yplus max: 3.76706, yplus min: 0.100197 
position of yplus max: -2.47422 0.16113 0.106396 
yplus prom: 0.810089 
forces: 0.093470 0.000758 -0.025229 
Drag coefficient: 0.694975 
torque (ref. CG): -0.000181 (roll) -0.008935 (pitch) -0.000939 (yaw) 
----------------------------------------------------- 
step 1378, time 1.033500, maxvel 3.000000, total vol 359.697, vol(u>maxvel) 0, cell count 0
bounding box (containing cells with vel>maxvel): xmin inf inf inf, xmax -inf -inf -infm 
bounding box of vehicle: xmin -2.47489 -0.161927 0.0631, xmax 0 0.161927 0.5139m 
gts area: 4.03325 
yplus max: 3.76694, yplus min: 0.100198 
position of yplus max: -2.47422 0.16113 0.106396 
yplus prom: 0.810078 
forces: 0.093462 0.000758 -0.025229 
Drag coefficient: 0.694916 
torque (ref. CG): -0.000181 (roll) -0.008936 (pitch) -0.000938 (yaw) 
----------------------------------------------------- 
step 1379, time 1.034250, maxvel 3.000000, total vol 359.697, vol(u>maxvel) 0, cell count 0
bounding box (containing cells with vel>maxvel): xmin inf inf inf, xmax -inf -inf -infm 
bounding box of vehicle: xmin -2.47489 -0.161927 0.0631, xmax 0 0.161927 0.5139m 
gts area: 4.03325 
yplus max: 3.76683, yplus min: 0.100197 
position of yplus max: -2.47422 0.16113 0.106396 
yplus prom: 0.810067 
forces: 0.093453 0.000758 -0.025227 
Drag coefficient: 0.694848 
torque (ref. CG): -0.000181 (roll) -0.008937 (pitch) -0.000937 (yaw) 
----------------------------------------------------- 
step 1380, time 1.035000, maxvel 3.000000, total vol 359.697, vol(u>maxvel) 0, cell count 0
bounding box (containing cells with vel>maxvel): xmin inf inf inf, xmax -inf -inf -infm 
bounding box of vehicle: xmin -2.47489 -0.161927 0.0631, xmax 0 0.161927 0.5139m 
gts area: 4.03325 
yplus max: 3.76671, yplus min: 0.100197 
position of yplus max: -2.47422 0.16113 0.106396 
yplus prom: 0.810056 
forces: 0.093447 0.000757 -0.025226 
Drag coefficient: 0.694803 
torque (ref. CG): -0.000181 (roll) -0.008937 (pitch) -0.000937 (yaw) 
----------------------------------------------------- 
step 1381, time 1.035750, maxvel 3.000000, total vol 359.697, vol(u>maxvel) 0, cell count 0
bounding box (containing cells with vel>maxvel): xmin inf inf inf, xmax -inf -inf -infm 
bounding box of vehicle: xmin -2.47489 -0.161927 0.0631, xmax 0 0.161927 0.5139m 
gts area: 4.03325 
yplus max: 3.7666, yplus min: 0.100197 
position of yplus max: -2.47422 0.16113 0.106396 
yplus prom: 0.810045 
forces: 0.093439 0.000757 -0.025226 
Drag coefficient: 0.694744 
torque (ref. CG): -0.000180 (roll) -0.008938 (pitch) -0.000937 (yaw) 
----------------------------------------------------- 
step 1382, time 1.036500, maxvel 3.000000, total vol 359.697, vol(u>maxvel) 0, cell count 0
bounding box (containing cells with vel>maxvel): xmin inf inf inf, xmax -inf -inf -infm 
bounding box of vehicle: xmin -2.47489 -0.161927 0.0631, xmax 0 0.161927 0.5139m 
gts area: 4.03325 
yplus max: 3.76648, yplus min: 0.100197 
position of yplus max: -2.47422 0.16113 0.106396 
yplus prom: 0.810034 
forces: 0.093430 0.000756 -0.025224 
Drag coefficient: 0.694676 
torque (ref. CG): -0.000180 (roll) -0.008939 (pitch) -0.000936 (yaw) 
----------------------------------------------------- 
step 1383, time 1.037250, maxvel 3.000000, total vol 359.697, vol(u>maxvel) 0, cell count 0
bounding box (containing cells with vel>maxvel): xmin inf inf inf, xmax -inf -inf -infm 
bounding box of vehicle: xmin -2.47489 -0.161927 0.0631, xmax 0 0.161927 0.5139m 
gts area: 4.03325 
yplus max: 3.76637, yplus min: 0.100196 
position of yplus max: -2.47422 0.16113 0.106396 
yplus prom: 0.810023 
forces: 0.093424 0.000756 -0.025223 
Drag coefficient: 0.694631 
torque (ref. CG): -0.000180 (roll) -0.008939 (pitch) -0.000936 (yaw) 
----------------------------------------------------- 
step 1384, time 1.038000, maxvel 3.000000, total vol 359.697, vol(u>maxvel) 0, cell count 0
bounding box (containing cells with vel>maxvel): xmin inf inf inf, xmax -inf -inf -infm 
bounding box of vehicle: xmin -2.47489 -0.161927 0.0631, xmax 0 0.161927 0.5139m 
gts area: 4.03325 
yplus max: 3.76626, yplus min: 0.100197 
position of yplus max: -2.47422 0.16113 0.106396 
yplus prom: 0.810013 
forces: 0.093416 0.000756 -0.025223 
Drag coefficient: 0.694572 
torque (ref. CG): -0.000180 (roll) -0.008940 (pitch) -0.000935 (yaw) 
----------------------------------------------------- 
step 1385, time 1.038750, maxvel 3.000000, total vol 359.697, vol(u>maxvel) 0, cell count 0
bounding box (containing cells with vel>maxvel): xmin inf inf inf, xmax -inf -inf -infm 
bounding box of vehicle: xmin -2.47489 -0.161927 0.0631, xmax 0 0.161927 0.5139m 
gts area: 4.03325 
yplus max: 3.76614, yplus min: 0.100196 
position of yplus max: -2.47422 0.16113 0.106396 
yplus prom: 0.810002 
forces: 0.093407 0.000755 -0.025221 
Drag coefficient: 0.694504 
torque (ref. CG): -0.000180 (roll) -0.008941 (pitch) -0.000934 (yaw) 
----------------------------------------------------- 
step 1386, time 1.039500, maxvel 3.000000, total vol 359.697, vol(u>maxvel) 0, cell count 0
bounding box (containing cells with vel>maxvel): xmin inf inf inf, xmax -inf -inf -infm 
bounding box of vehicle: xmin -2.47489 -0.161927 0.0631, xmax 0 0.161927 0.5139m 
gts area: 4.03325 
yplus max: 3.76603, yplus min: 0.100196 
position of yplus max: -2.47422 0.16113 0.106396 
yplus prom: 0.809991 
forces: 0.093401 0.000755 -0.025221 
Drag coefficient: 0.694460 
torque (ref. CG): -0.000180 (roll) -0.008941 (pitch) -0.000934 (yaw) 
----------------------------------------------------- 
step 1387, time 1.040250, maxvel 3.000000, total vol 359.697, vol(u>maxvel) 0, cell count 0
bounding box (containing cells with vel>maxvel): xmin inf inf inf, xmax -inf -inf -infm 
bounding box of vehicle: xmin -2.47489 -0.161927 0.0631, xmax 0 0.161927 0.5139m 
gts area: 4.03325 
yplus max: 3.76592, yplus min: 0.100197 
position of yplus max: -2.47422 0.16113 0.106396 
yplus prom: 0.80998 
forces: 0.093393 0.000754 -0.025220 
Drag coefficient: 0.694401 
torque (ref. CG): -0.000180 (roll) -0.008942 (pitch) -0.000934 (yaw) 
----------------------------------------------------- 
step 1388, time 1.041000, maxvel 3.000000, total vol 359.697, vol(u>maxvel) 0, cell count 0
bounding box (containing cells with vel>maxvel): xmin inf inf inf, xmax -inf -inf -infm 
bounding box of vehicle: xmin -2.47489 -0.161927 0.0631, xmax 0 0.161927 0.5139m 
gts area: 4.03325 
yplus max: 3.7658, yplus min: 0.100196 
position of yplus max: -2.47422 0.16113 0.106396 
yplus prom: 0.809969 
forces: 0.093384 0.000754 -0.025218 
Drag coefficient: 0.694333 
torque (ref. CG): -0.000180 (roll) -0.008943 (pitch) -0.000933 (yaw) 
----------------------------------------------------- 
step 1389, time 1.041750, maxvel 3.000000, total vol 359.697, vol(u>maxvel) 0, cell count 0
bounding box (containing cells with vel>maxvel): xmin inf inf inf, xmax -inf -inf -infm 
bounding box of vehicle: xmin -2.47489 -0.161927 0.0631, xmax 0 0.161927 0.5139m 
gts area: 4.03325 
yplus max: 3.76569, yplus min: 0.100196 
position of yplus max: -2.47422 0.16113 0.106396 
yplus prom: 0.809959 
forces: 0.093378 0.000754 -0.025218 
Drag coefficient: 0.694289 
torque (ref. CG): -0.000180 (roll) -0.008943 (pitch) -0.000933 (yaw) 
----------------------------------------------------- 
step 1390, time 1.042500, maxvel 3.000000, total vol 359.697, vol(u>maxvel) 0, cell count 0
bounding box (containing cells with vel>maxvel): xmin inf inf inf, xmax -inf -inf -infm 
bounding box of vehicle: xmin -2.47489 -0.161927 0.0631, xmax 0 0.161927 0.5139m 
gts area: 4.03325 
yplus max: 3.76557, yplus min: 0.100196 
position of yplus max: -2.47422 0.16113 0.106396 
yplus prom: 0.809948 
forces: 0.093370 0.000753 -0.025217 
Drag coefficient: 0.694230 
torque (ref. CG): -0.000180 (roll) -0.008944 (pitch) -0.000932 (yaw) 
----------------------------------------------------- 
step 1391, time 1.043250, maxvel 3.000000, total vol 359.697, vol(u>maxvel) 0, cell count 0
bounding box (containing cells with vel>maxvel): xmin inf inf inf, xmax -inf -inf -infm 
bounding box of vehicle: xmin -2.47489 -0.161927 0.0631, xmax 0 0.161927 0.5139m 
gts area: 4.03325 
yplus max: 3.76546, yplus min: 0.100195 
position of yplus max: -2.47422 0.16113 0.106396 
yplus prom: 0.809937 
forces: 0.093361 0.000753 -0.025216 
Drag coefficient: 0.694163 
torque (ref. CG): -0.000179 (roll) -0.008945 (pitch) -0.000931 (yaw) 
----------------------------------------------------- 
step 1392, time 1.044000, maxvel 3.000000, total vol 359.697, vol(u>maxvel) 0, cell count 0
bounding box (containing cells with vel>maxvel): xmin inf inf inf, xmax -inf -inf -infm 
bounding box of vehicle: xmin -2.47489 -0.161927 0.0631, xmax 0 0.161927 0.5139m 
gts area: 4.03325 
yplus max: 3.76535, yplus min: 0.100195 
position of yplus max: -2.47422 0.16113 0.106396 
yplus prom: 0.809927 
forces: 0.093355 0.000752 -0.025215 
Drag coefficient: 0.694118 
torque (ref. CG): -0.000179 (roll) -0.008945 (pitch) -0.000931 (yaw) 
----------------------------------------------------- 
step 1393, time 1.044750, maxvel 3.000000, total vol 359.697, vol(u>maxvel) 0, cell count 0
bounding box (containing cells with vel>maxvel): xmin inf inf inf, xmax -inf -inf -infm 
bounding box of vehicle: xmin -2.47489 -0.161927 0.0631, xmax 0 0.161927 0.5139m 
gts area: 4.03325 
yplus max: 3.76524, yplus min: 0.100195 
position of yplus max: -2.47422 0.16113 0.106396 
yplus prom: 0.809916 
forces: 0.093347 0.000752 -0.025214 
Drag coefficient: 0.694060 
torque (ref. CG): -0.000179 (roll) -0.008946 (pitch) -0.000931 (yaw) 
----------------------------------------------------- 
step 1394, time 1.045500, maxvel 3.000000, total vol 359.697, vol(u>maxvel) 0, cell count 0
bounding box (containing cells with vel>maxvel): xmin inf inf inf, xmax -inf -inf -infm 
bounding box of vehicle: xmin -2.47489 -0.161927 0.0631, xmax 0 0.161927 0.5139m 
gts area: 4.03325 
yplus max: 3.76512, yplus min: 0.100194 
position of yplus max: -2.47422 0.16113 0.106396 
yplus prom: 0.809905 
forces: 0.093338 0.000751 -0.025213 
Drag coefficient: 0.693993 
torque (ref. CG): -0.000179 (roll) -0.008947 (pitch) -0.000930 (yaw) 
----------------------------------------------------- 
