Start run at mié sep 7 02:07:37 ART 2022
PYTHON_CS_XFLAGS=' -O0 -g3 -ggdb3 -I/usr/include/jsoncpp ' /share/storage/pub/mstorti/saturne-vof/bin/code_saturne  run --param setup.xml

The following have been reloaded with a version change:
  1) llvm/6.0.0 => llvm/3.4.2


The following have been reloaded with a version change:
  1) llvm/3.4.2 => llvm/6.0.0


                      Code_Saturne
                      ************

 Version:   6.1-alpha
 Path:      /share/storage/pub/mstorti/saturne-vof

 Result directory:
   /share/storage/finzeo/GTS_Tunay_2/RESU/20220907-0207


 ****************************************
  Compiling user subroutines and linking
 ****************************************


 ****************************
  Preparing calculation data
 ****************************

 Parallel Code_Saturne on 80 processes.


 ***************************
  Preprocessing calculation
 ***************************


 **********************
  Starting calculation
 **********************

Warning: Process to core binding is enabled and OMP_NUM_THREADS is set to non-zero (1) value
If your program has OpenMP sections, this can cause over-subscription of cores and consequently poor performance
To avoid this, please re-run your application after setting MV2_ENABLE_AFFINITY=0
Use MV2_USE_THREAD_WARNING=0 to suppress this message
step 1, time 0.000750, maxvel 30.000000, total vol 359.697, vol(u>maxvel) 0, cell count 0
bounding box (containing cells with vel>maxvel): xmin inf inf inf, xmax -inf -inf -infm 
bounding box of vehicle: xmin inf inf inf, xmax -inf -inf -infm 
gts area: 0 
yplus max: -inf, yplus min: inf 
position of yplus max: -inf -inf -inf 
yplus prom: -nan 
forces: 0.000000 0.000000 0.000000 
Drag coefficient: 0.000000 
torque (ref. CG): 0.000000 (roll) 0.000000 (pitch) 0.000000 (yaw) 
----------------------------------------------------- 
step 2, time 0.001500, maxvel 30.000000, total vol 359.697, vol(u>maxvel) 0, cell count 0
bounding box (containing cells with vel>maxvel): xmin inf inf inf, xmax -inf -inf -infm 
bounding box of vehicle: xmin inf inf inf, xmax -inf -inf -infm 
gts area: 0 
yplus max: -inf, yplus min: inf 
position of yplus max: -inf -inf -inf 
yplus prom: -nan 
forces: 0.000000 0.000000 0.000000 
Drag coefficient: 0.000000 
torque (ref. CG): 0.000000 (roll) 0.000000 (pitch) 0.000000 (yaw) 
----------------------------------------------------- 
step 3, time 0.002250, maxvel 30.000000, total vol 359.697, vol(u>maxvel) 0, cell count 0
bounding box (containing cells with vel>maxvel): xmin inf inf inf, xmax -inf -inf -infm 
bounding box of vehicle: xmin inf inf inf, xmax -inf -inf -infm 
gts area: 0 
yplus max: -inf, yplus min: inf 
position of yplus max: -inf -inf -inf 
yplus prom: -nan 
forces: 0.000000 0.000000 0.000000 
Drag coefficient: 0.000000 
torque (ref. CG): 0.000000 (roll) 0.000000 (pitch) 0.000000 (yaw) 
----------------------------------------------------- 
step 4, time 0.003000, maxvel 30.000000, total vol 359.697, vol(u>maxvel) 0, cell count 0
bounding box (containing cells with vel>maxvel): xmin inf inf inf, xmax -inf -inf -infm 
bounding box of vehicle: xmin inf inf inf, xmax -inf -inf -infm 
gts area: 0 
yplus max: -inf, yplus min: inf 
position of yplus max: -inf -inf -inf 
yplus prom: -nan 
forces: 0.000000 0.000000 0.000000 
Drag coefficient: 0.000000 
torque (ref. CG): 0.000000 (roll) 0.000000 (pitch) 0.000000 (yaw) 
----------------------------------------------------- 
step 5, time 0.003750, maxvel 30.000000, total vol 359.697, vol(u>maxvel) 0, cell count 0
bounding box (containing cells with vel>maxvel): xmin inf inf inf, xmax -inf -inf -infm 
bounding box of vehicle: xmin inf inf inf, xmax -inf -inf -infm 
gts area: 0 
yplus max: -inf, yplus min: inf 
position of yplus max: -inf -inf -inf 
yplus prom: -nan 
forces: 0.000000 0.000000 0.000000 
Drag coefficient: 0.000000 
torque (ref. CG): 0.000000 (roll) 0.000000 (pitch) 0.000000 (yaw) 
----------------------------------------------------- 
step 6, time 0.004500, maxvel 30.000000, total vol 359.697, vol(u>maxvel) 0, cell count 0
bounding box (containing cells with vel>maxvel): xmin inf inf inf, xmax -inf -inf -infm 
bounding box of vehicle: xmin inf inf inf, xmax -inf -inf -infm 
gts area: 0 
yplus max: -inf, yplus min: inf 
position of yplus max: -inf -inf -inf 
yplus prom: -nan 
forces: 0.000000 0.000000 0.000000 
Drag coefficient: 0.000000 
torque (ref. CG): 0.000000 (roll) 0.000000 (pitch) 0.000000 (yaw) 
----------------------------------------------------- 
step 7, time 0.005250, maxvel 30.000000, total vol 359.697, vol(u>maxvel) 0, cell count 0
bounding box (containing cells with vel>maxvel): xmin inf inf inf, xmax -inf -inf -infm 
bounding box of vehicle: xmin inf inf inf, xmax -inf -inf -infm 
gts area: 0 
yplus max: -inf, yplus min: inf 
position of yplus max: -inf -inf -inf 
yplus prom: -nan 
forces: 0.000000 0.000000 0.000000 
Drag coefficient: 0.000000 
torque (ref. CG): 0.000000 (roll) 0.000000 (pitch) 0.000000 (yaw) 
----------------------------------------------------- 
step 8, time 0.006000, maxvel 30.000000, total vol 359.697, vol(u>maxvel) 0, cell count 0
bounding box (containing cells with vel>maxvel): xmin inf inf inf, xmax -inf -inf -infm 
bounding box of vehicle: xmin inf inf inf, xmax -inf -inf -infm 
gts area: 0 
yplus max: -inf, yplus min: inf 
position of yplus max: -inf -inf -inf 
yplus prom: -nan 
forces: 0.000000 0.000000 0.000000 
Drag coefficient: 0.000000 
torque (ref. CG): 0.000000 (roll) 0.000000 (pitch) 0.000000 (yaw) 
----------------------------------------------------- 
step 9, time 0.006750, maxvel 30.000000, total vol 359.697, vol(u>maxvel) 0, cell count 0
bounding box (containing cells with vel>maxvel): xmin inf inf inf, xmax -inf -inf -infm 
bounding box of vehicle: xmin inf inf inf, xmax -inf -inf -infm 
gts area: 0 
yplus max: -inf, yplus min: inf 
position of yplus max: -inf -inf -inf 
yplus prom: -nan 
forces: 0.000000 0.000000 0.000000 
Drag coefficient: 0.000000 
torque (ref. CG): 0.000000 (roll) 0.000000 (pitch) 0.000000 (yaw) 
----------------------------------------------------- 
step 10, time 0.007500, maxvel 30.000000, total vol 359.697, vol(u>maxvel) 0, cell count 0
bounding box (containing cells with vel>maxvel): xmin inf inf inf, xmax -inf -inf -infm 
bounding box of vehicle: xmin inf inf inf, xmax -inf -inf -infm 
gts area: 0 
yplus max: -inf, yplus min: inf 
position of yplus max: -inf -inf -inf 
yplus prom: -nan 
forces: 0.000000 0.000000 0.000000 
Drag coefficient: 0.000000 
torque (ref. CG): 0.000000 (roll) 0.000000 (pitch) 0.000000 (yaw) 
----------------------------------------------------- 
step 11, time 0.008250, maxvel 30.000000, total vol 359.697, vol(u>maxvel) 0, cell count 0
bounding box (containing cells with vel>maxvel): xmin inf inf inf, xmax -inf -inf -infm 
bounding box of vehicle: xmin inf inf inf, xmax -inf -inf -infm 
gts area: 0 
yplus max: -inf, yplus min: inf 
position of yplus max: -inf -inf -inf 
yplus prom: -nan 
forces: 0.000000 0.000000 0.000000 
Drag coefficient: 0.000000 
torque (ref. CG): 0.000000 (roll) 0.000000 (pitch) 0.000000 (yaw) 
----------------------------------------------------- 
step 12, time 0.009000, maxvel 30.000000, total vol 359.697, vol(u>maxvel) 0, cell count 0
bounding box (containing cells with vel>maxvel): xmin inf inf inf, xmax -inf -inf -infm 
bounding box of vehicle: xmin inf inf inf, xmax -inf -inf -infm 
gts area: 0 
yplus max: -inf, yplus min: inf 
position of yplus max: -inf -inf -inf 
yplus prom: -nan 
forces: 0.000000 0.000000 0.000000 
Drag coefficient: 0.000000 
torque (ref. CG): 0.000000 (roll) 0.000000 (pitch) 0.000000 (yaw) 
----------------------------------------------------- 
step 13, time 0.009750, maxvel 30.000000, total vol 359.697, vol(u>maxvel) 0, cell count 0
bounding box (containing cells with vel>maxvel): xmin inf inf inf, xmax -inf -inf -infm 
bounding box of vehicle: xmin inf inf inf, xmax -inf -inf -infm 
gts area: 0 
yplus max: -inf, yplus min: inf 
position of yplus max: -inf -inf -inf 
yplus prom: -nan 
forces: 0.000000 0.000000 0.000000 
Drag coefficient: 0.000000 
torque (ref. CG): 0.000000 (roll) 0.000000 (pitch) 0.000000 (yaw) 
----------------------------------------------------- 
step 14, time 0.010500, maxvel 30.000000, total vol 359.697, vol(u>maxvel) 0, cell count 0
bounding box (containing cells with vel>maxvel): xmin inf inf inf, xmax -inf -inf -infm 
bounding box of vehicle: xmin inf inf inf, xmax -inf -inf -infm 
gts area: 0 
yplus max: -inf, yplus min: inf 
position of yplus max: -inf -inf -inf 
yplus prom: -nan 
forces: 0.000000 0.000000 0.000000 
Drag coefficient: 0.000000 
torque (ref. CG): 0.000000 (roll) 0.000000 (pitch) 0.000000 (yaw) 
----------------------------------------------------- 
step 15, time 0.011250, maxvel 30.000000, total vol 359.697, vol(u>maxvel) 0, cell count 0
bounding box (containing cells with vel>maxvel): xmin inf inf inf, xmax -inf -inf -infm 
bounding box of vehicle: xmin inf inf inf, xmax -inf -inf -infm 
gts area: 0 
yplus max: -inf, yplus min: inf 
position of yplus max: -inf -inf -inf 
yplus prom: -nan 
forces: 0.000000 0.000000 0.000000 
Drag coefficient: 0.000000 
torque (ref. CG): 0.000000 (roll) 0.000000 (pitch) 0.000000 (yaw) 
----------------------------------------------------- 
step 16, time 0.012000, maxvel 30.000000, total vol 359.697, vol(u>maxvel) 0, cell count 0
bounding box (containing cells with vel>maxvel): xmin inf inf inf, xmax -inf -inf -infm 
bounding box of vehicle: xmin inf inf inf, xmax -inf -inf -infm 
gts area: 0 
yplus max: -inf, yplus min: inf 
position of yplus max: -inf -inf -inf 
yplus prom: -nan 
forces: 0.000000 0.000000 0.000000 
Drag coefficient: 0.000000 
torque (ref. CG): 0.000000 (roll) 0.000000 (pitch) 0.000000 (yaw) 
----------------------------------------------------- 
step 17, time 0.012750, maxvel 30.000000, total vol 359.697, vol(u>maxvel) 0, cell count 0
bounding box (containing cells with vel>maxvel): xmin inf inf inf, xmax -inf -inf -infm 
bounding box of vehicle: xmin inf inf inf, xmax -inf -inf -infm 
gts area: 0 
yplus max: -inf, yplus min: inf 
position of yplus max: -inf -inf -inf 
yplus prom: -nan 
forces: 0.000000 0.000000 0.000000 
Drag coefficient: 0.000000 
torque (ref. CG): 0.000000 (roll) 0.000000 (pitch) 0.000000 (yaw) 
----------------------------------------------------- 
step 18, time 0.013500, maxvel 30.000000, total vol 359.697, vol(u>maxvel) 0, cell count 0
bounding box (containing cells with vel>maxvel): xmin inf inf inf, xmax -inf -inf -infm 
bounding box of vehicle: xmin inf inf inf, xmax -inf -inf -infm 
gts area: 0 
yplus max: -inf, yplus min: inf 
position of yplus max: -inf -inf -inf 
yplus prom: -nan 
forces: 0.000000 0.000000 0.000000 
Drag coefficient: 0.000000 
torque (ref. CG): 0.000000 (roll) 0.000000 (pitch) 0.000000 (yaw) 
----------------------------------------------------- 
step 19, time 0.014250, maxvel 30.000000, total vol 359.697, vol(u>maxvel) 0, cell count 0
bounding box (containing cells with vel>maxvel): xmin inf inf inf, xmax -inf -inf -infm 
bounding box of vehicle: xmin inf inf inf, xmax -inf -inf -infm 
gts area: 0 
yplus max: -inf, yplus min: inf 
position of yplus max: -inf -inf -inf 
yplus prom: -nan 
forces: 0.000000 0.000000 0.000000 
Drag coefficient: 0.000000 
torque (ref. CG): 0.000000 (roll) 0.000000 (pitch) 0.000000 (yaw) 
----------------------------------------------------- 
step 20, time 0.015000, maxvel 30.000000, total vol 359.697, vol(u>maxvel) 0, cell count 0
bounding box (containing cells with vel>maxvel): xmin inf inf inf, xmax -inf -inf -infm 
bounding box of vehicle: xmin inf inf inf, xmax -inf -inf -infm 
gts area: 0 
yplus max: -inf, yplus min: inf 
position of yplus max: -inf -inf -inf 
yplus prom: -nan 
forces: 0.000000 0.000000 0.000000 
Drag coefficient: 0.000000 
torque (ref. CG): 0.000000 (roll) 0.000000 (pitch) 0.000000 (yaw) 
----------------------------------------------------- 
step 21, time 0.015750, maxvel 30.000000, total vol 359.697, vol(u>maxvel) 0, cell count 0
bounding box (containing cells with vel>maxvel): xmin inf inf inf, xmax -inf -inf -infm 
bounding box of vehicle: xmin inf inf inf, xmax -inf -inf -infm 
gts area: 0 
yplus max: -inf, yplus min: inf 
position of yplus max: -inf -inf -inf 
yplus prom: -nan 
forces: 0.000000 0.000000 0.000000 
Drag coefficient: 0.000000 
torque (ref. CG): 0.000000 (roll) 0.000000 (pitch) 0.000000 (yaw) 
----------------------------------------------------- 
step 22, time 0.016500, maxvel 30.000000, total vol 359.697, vol(u>maxvel) 0, cell count 0
bounding box (containing cells with vel>maxvel): xmin inf inf inf, xmax -inf -inf -infm 
bounding box of vehicle: xmin inf inf inf, xmax -inf -inf -infm 
gts area: 0 
yplus max: -inf, yplus min: inf 
position of yplus max: -inf -inf -inf 
yplus prom: -nan 
forces: 0.000000 0.000000 0.000000 
Drag coefficient: 0.000000 
torque (ref. CG): 0.000000 (roll) 0.000000 (pitch) 0.000000 (yaw) 
----------------------------------------------------- 
step 23, time 0.017250, maxvel 30.000000, total vol 359.697, vol(u>maxvel) 0, cell count 0
bounding box (containing cells with vel>maxvel): xmin inf inf inf, xmax -inf -inf -infm 
bounding box of vehicle: xmin inf inf inf, xmax -inf -inf -infm 
gts area: 0 
yplus max: -inf, yplus min: inf 
position of yplus max: -inf -inf -inf 
yplus prom: -nan 
forces: 0.000000 0.000000 0.000000 
Drag coefficient: 0.000000 
torque (ref. CG): 0.000000 (roll) 0.000000 (pitch) 0.000000 (yaw) 
----------------------------------------------------- 
step 24, time 0.018000, maxvel 30.000000, total vol 359.697, vol(u>maxvel) 0, cell count 0
bounding box (containing cells with vel>maxvel): xmin inf inf inf, xmax -inf -inf -infm 
bounding box of vehicle: xmin inf inf inf, xmax -inf -inf -infm 
gts area: 0 
yplus max: -inf, yplus min: inf 
position of yplus max: -inf -inf -inf 
yplus prom: -nan 
forces: 0.000000 0.000000 0.000000 
Drag coefficient: 0.000000 
torque (ref. CG): 0.000000 (roll) 0.000000 (pitch) 0.000000 (yaw) 
----------------------------------------------------- 
step 25, time 0.018750, maxvel 30.000000, total vol 359.697, vol(u>maxvel) 0, cell count 0
bounding box (containing cells with vel>maxvel): xmin inf inf inf, xmax -inf -inf -infm 
bounding box of vehicle: xmin inf inf inf, xmax -inf -inf -infm 
gts area: 0 
yplus max: -inf, yplus min: inf 
position of yplus max: -inf -inf -inf 
yplus prom: -nan 
forces: 0.000000 0.000000 0.000000 
Drag coefficient: 0.000000 
torque (ref. CG): 0.000000 (roll) 0.000000 (pitch) 0.000000 (yaw) 
----------------------------------------------------- 
step 26, time 0.019500, maxvel 30.000000, total vol 359.697, vol(u>maxvel) 0, cell count 0
bounding box (containing cells with vel>maxvel): xmin inf inf inf, xmax -inf -inf -infm 
bounding box of vehicle: xmin inf inf inf, xmax -inf -inf -infm 
gts area: 0 
yplus max: -inf, yplus min: inf 
position of yplus max: -inf -inf -inf 
yplus prom: -nan 
forces: 0.000000 0.000000 0.000000 
Drag coefficient: 0.000000 
torque (ref. CG): 0.000000 (roll) 0.000000 (pitch) 0.000000 (yaw) 
----------------------------------------------------- 
step 27, time 0.020250, maxvel 30.000000, total vol 359.697, vol(u>maxvel) 0, cell count 0
bounding box (containing cells with vel>maxvel): xmin inf inf inf, xmax -inf -inf -infm 
bounding box of vehicle: xmin inf inf inf, xmax -inf -inf -infm 
gts area: 0 
yplus max: -inf, yplus min: inf 
position of yplus max: -inf -inf -inf 
yplus prom: -nan 
forces: 0.000000 0.000000 0.000000 
Drag coefficient: 0.000000 
torque (ref. CG): 0.000000 (roll) 0.000000 (pitch) 0.000000 (yaw) 
----------------------------------------------------- 
step 28, time 0.021000, maxvel 30.000000, total vol 359.697, vol(u>maxvel) 0, cell count 0
bounding box (containing cells with vel>maxvel): xmin inf inf inf, xmax -inf -inf -infm 
bounding box of vehicle: xmin inf inf inf, xmax -inf -inf -infm 
gts area: 0 
yplus max: -inf, yplus min: inf 
position of yplus max: -inf -inf -inf 
yplus prom: -nan 
forces: 0.000000 0.000000 0.000000 
Drag coefficient: 0.000000 
torque (ref. CG): 0.000000 (roll) 0.000000 (pitch) 0.000000 (yaw) 
----------------------------------------------------- 
step 29, time 0.021750, maxvel 30.000000, total vol 359.697, vol(u>maxvel) 0, cell count 0
bounding box (containing cells with vel>maxvel): xmin inf inf inf, xmax -inf -inf -infm 
bounding box of vehicle: xmin inf inf inf, xmax -inf -inf -infm 
gts area: 0 
yplus max: -inf, yplus min: inf 
position of yplus max: -inf -inf -inf 
yplus prom: -nan 
forces: 0.000000 0.000000 0.000000 
Drag coefficient: 0.000000 
torque (ref. CG): 0.000000 (roll) 0.000000 (pitch) 0.000000 (yaw) 
----------------------------------------------------- 
step 30, time 0.022500, maxvel 30.000000, total vol 359.697, vol(u>maxvel) 0, cell count 0
bounding box (containing cells with vel>maxvel): xmin inf inf inf, xmax -inf -inf -infm 
bounding box of vehicle: xmin inf inf inf, xmax -inf -inf -infm 
gts area: 0 
yplus max: -inf, yplus min: inf 
position of yplus max: -inf -inf -inf 
yplus prom: -nan 
forces: 0.000000 0.000000 0.000000 
Drag coefficient: 0.000000 
torque (ref. CG): 0.000000 (roll) 0.000000 (pitch) 0.000000 (yaw) 
----------------------------------------------------- 
step 31, time 0.023250, maxvel 30.000000, total vol 359.697, vol(u>maxvel) 0, cell count 0
bounding box (containing cells with vel>maxvel): xmin inf inf inf, xmax -inf -inf -infm 
bounding box of vehicle: xmin inf inf inf, xmax -inf -inf -infm 
gts area: 0 
yplus max: -inf, yplus min: inf 
position of yplus max: -inf -inf -inf 
yplus prom: -nan 
forces: 0.000000 0.000000 0.000000 
Drag coefficient: 0.000000 
torque (ref. CG): 0.000000 (roll) 0.000000 (pitch) 0.000000 (yaw) 
----------------------------------------------------- 
step 32, time 0.024000, maxvel 30.000000, total vol 359.697, vol(u>maxvel) 0, cell count 0
bounding box (containing cells with vel>maxvel): xmin inf inf inf, xmax -inf -inf -infm 
bounding box of vehicle: xmin inf inf inf, xmax -inf -inf -infm 
gts area: 0 
yplus max: -inf, yplus min: inf 
position of yplus max: -inf -inf -inf 
yplus prom: -nan 
forces: 0.000000 0.000000 0.000000 
Drag coefficient: 0.000000 
torque (ref. CG): 0.000000 (roll) 0.000000 (pitch) 0.000000 (yaw) 
----------------------------------------------------- 
step 33, time 0.024750, maxvel 30.000000, total vol 359.697, vol(u>maxvel) 0, cell count 0
bounding box (containing cells with vel>maxvel): xmin inf inf inf, xmax -inf -inf -infm 
bounding box of vehicle: xmin inf inf inf, xmax -inf -inf -infm 
gts area: 0 
yplus max: -inf, yplus min: inf 
position of yplus max: -inf -inf -inf 
yplus prom: -nan 
forces: 0.000000 0.000000 0.000000 
Drag coefficient: 0.000000 
torque (ref. CG): 0.000000 (roll) 0.000000 (pitch) 0.000000 (yaw) 
----------------------------------------------------- 
step 34, time 0.025500, maxvel 30.000000, total vol 359.697, vol(u>maxvel) 0, cell count 0
bounding box (containing cells with vel>maxvel): xmin inf inf inf, xmax -inf -inf -infm 
bounding box of vehicle: xmin inf inf inf, xmax -inf -inf -infm 
gts area: 0 
yplus max: -inf, yplus min: inf 
position of yplus max: -inf -inf -inf 
yplus prom: -nan 
forces: 0.000000 0.000000 0.000000 
Drag coefficient: 0.000000 
torque (ref. CG): 0.000000 (roll) 0.000000 (pitch) 0.000000 (yaw) 
----------------------------------------------------- 
step 35, time 0.026250, maxvel 30.000000, total vol 359.697, vol(u>maxvel) 0, cell count 0
bounding box (containing cells with vel>maxvel): xmin inf inf inf, xmax -inf -inf -infm 
bounding box of vehicle: xmin inf inf inf, xmax -inf -inf -infm 
gts area: 0 
yplus max: -inf, yplus min: inf 
position of yplus max: -inf -inf -inf 
yplus prom: -nan 
forces: 0.000000 0.000000 0.000000 
Drag coefficient: 0.000000 
torque (ref. CG): 0.000000 (roll) 0.000000 (pitch) 0.000000 (yaw) 
----------------------------------------------------- 
step 36, time 0.027000, maxvel 30.000000, total vol 359.697, vol(u>maxvel) 0, cell count 0
bounding box (containing cells with vel>maxvel): xmin inf inf inf, xmax -inf -inf -infm 
bounding box of vehicle: xmin inf inf inf, xmax -inf -inf -infm 
gts area: 0 
yplus max: -inf, yplus min: inf 
position of yplus max: -inf -inf -inf 
yplus prom: -nan 
forces: 0.000000 0.000000 0.000000 
Drag coefficient: 0.000000 
torque (ref. CG): 0.000000 (roll) 0.000000 (pitch) 0.000000 (yaw) 
----------------------------------------------------- 
step 37, time 0.027750, maxvel 30.000000, total vol 359.697, vol(u>maxvel) 0, cell count 0
bounding box (containing cells with vel>maxvel): xmin inf inf inf, xmax -inf -inf -infm 
bounding box of vehicle: xmin inf inf inf, xmax -inf -inf -infm 
gts area: 0 
yplus max: -inf, yplus min: inf 
position of yplus max: -inf -inf -inf 
yplus prom: -nan 
forces: 0.000000 0.000000 0.000000 
Drag coefficient: 0.000000 
torque (ref. CG): 0.000000 (roll) 0.000000 (pitch) 0.000000 (yaw) 
----------------------------------------------------- 
step 38, time 0.028500, maxvel 30.000000, total vol 359.697, vol(u>maxvel) 0, cell count 0
bounding box (containing cells with vel>maxvel): xmin inf inf inf, xmax -inf -inf -infm 
bounding box of vehicle: xmin inf inf inf, xmax -inf -inf -infm 
gts area: 0 
yplus max: -inf, yplus min: inf 
position of yplus max: -inf -inf -inf 
yplus prom: -nan 
forces: 0.000000 0.000000 0.000000 
Drag coefficient: 0.000000 
torque (ref. CG): 0.000000 (roll) 0.000000 (pitch) 0.000000 (yaw) 
----------------------------------------------------- 
step 39, time 0.029250, maxvel 30.000000, total vol 359.697, vol(u>maxvel) 0, cell count 0
bounding box (containing cells with vel>maxvel): xmin inf inf inf, xmax -inf -inf -infm 
bounding box of vehicle: xmin inf inf inf, xmax -inf -inf -infm 
gts area: 0 
yplus max: -inf, yplus min: inf 
position of yplus max: -inf -inf -inf 
yplus prom: -nan 
forces: 0.000000 0.000000 0.000000 
Drag coefficient: 0.000000 
torque (ref. CG): 0.000000 (roll) 0.000000 (pitch) 0.000000 (yaw) 
----------------------------------------------------- 
step 40, time 0.030000, maxvel 30.000000, total vol 359.697, vol(u>maxvel) 0, cell count 0
bounding box (containing cells with vel>maxvel): xmin inf inf inf, xmax -inf -inf -infm 
bounding box of vehicle: xmin inf inf inf, xmax -inf -inf -infm 
gts area: 0 
yplus max: -inf, yplus min: inf 
position of yplus max: -inf -inf -inf 
yplus prom: -nan 
forces: 0.000000 0.000000 0.000000 
Drag coefficient: 0.000000 
torque (ref. CG): 0.000000 (roll) 0.000000 (pitch) 0.000000 (yaw) 
----------------------------------------------------- 
step 41, time 0.030750, maxvel 30.000000, total vol 359.697, vol(u>maxvel) 0, cell count 0
bounding box (containing cells with vel>maxvel): xmin inf inf inf, xmax -inf -inf -infm 
bounding box of vehicle: xmin inf inf inf, xmax -inf -inf -infm 
gts area: 0 
yplus max: -inf, yplus min: inf 
position of yplus max: -inf -inf -inf 
yplus prom: -nan 
forces: 0.000000 0.000000 0.000000 
Drag coefficient: 0.000000 
torque (ref. CG): 0.000000 (roll) 0.000000 (pitch) 0.000000 (yaw) 
----------------------------------------------------- 
step 42, time 0.031500, maxvel 30.000000, total vol 359.697, vol(u>maxvel) 0, cell count 0
bounding box (containing cells with vel>maxvel): xmin inf inf inf, xmax -inf -inf -infm 
bounding box of vehicle: xmin inf inf inf, xmax -inf -inf -infm 
gts area: 0 
yplus max: -inf, yplus min: inf 
position of yplus max: -inf -inf -inf 
yplus prom: -nan 
forces: 0.000000 0.000000 0.000000 
Drag coefficient: 0.000000 
torque (ref. CG): 0.000000 (roll) 0.000000 (pitch) 0.000000 (yaw) 
----------------------------------------------------- 
step 43, time 0.032250, maxvel 30.000000, total vol 359.697, vol(u>maxvel) 0, cell count 0
bounding box (containing cells with vel>maxvel): xmin inf inf inf, xmax -inf -inf -infm 
bounding box of vehicle: xmin inf inf inf, xmax -inf -inf -infm 
gts area: 0 
yplus max: -inf, yplus min: inf 
position of yplus max: -inf -inf -inf 
yplus prom: -nan 
forces: 0.000000 0.000000 0.000000 
Drag coefficient: 0.000000 
torque (ref. CG): 0.000000 (roll) 0.000000 (pitch) 0.000000 (yaw) 
----------------------------------------------------- 
step 44, time 0.033000, maxvel 30.000000, total vol 359.697, vol(u>maxvel) 0, cell count 0
bounding box (containing cells with vel>maxvel): xmin inf inf inf, xmax -inf -inf -infm 
bounding box of vehicle: xmin inf inf inf, xmax -inf -inf -infm 
gts area: 0 
yplus max: -inf, yplus min: inf 
position of yplus max: -inf -inf -inf 
yplus prom: -nan 
forces: 0.000000 0.000000 0.000000 
Drag coefficient: 0.000000 
torque (ref. CG): 0.000000 (roll) 0.000000 (pitch) 0.000000 (yaw) 
----------------------------------------------------- 
step 45, time 0.033750, maxvel 30.000000, total vol 359.697, vol(u>maxvel) 0, cell count 0
bounding box (containing cells with vel>maxvel): xmin inf inf inf, xmax -inf -inf -infm 
bounding box of vehicle: xmin inf inf inf, xmax -inf -inf -infm 
gts area: 0 
yplus max: -inf, yplus min: inf 
position of yplus max: -inf -inf -inf 
yplus prom: -nan 
forces: 0.000000 0.000000 0.000000 
Drag coefficient: 0.000000 
torque (ref. CG): 0.000000 (roll) 0.000000 (pitch) 0.000000 (yaw) 
----------------------------------------------------- 
step 46, time 0.034500, maxvel 30.000000, total vol 359.697, vol(u>maxvel) 0, cell count 0
bounding box (containing cells with vel>maxvel): xmin inf inf inf, xmax -inf -inf -infm 
bounding box of vehicle: xmin inf inf inf, xmax -inf -inf -infm 
gts area: 0 
yplus max: -inf, yplus min: inf 
position of yplus max: -inf -inf -inf 
yplus prom: -nan 
forces: 0.000000 0.000000 0.000000 
Drag coefficient: 0.000000 
torque (ref. CG): 0.000000 (roll) 0.000000 (pitch) 0.000000 (yaw) 
----------------------------------------------------- 
step 47, time 0.035250, maxvel 30.000000, total vol 359.697, vol(u>maxvel) 0, cell count 0
bounding box (containing cells with vel>maxvel): xmin inf inf inf, xmax -inf -inf -infm 
bounding box of vehicle: xmin inf inf inf, xmax -inf -inf -infm 
gts area: 0 
yplus max: -inf, yplus min: inf 
position of yplus max: -inf -inf -inf 
yplus prom: -nan 
forces: 0.000000 0.000000 0.000000 
Drag coefficient: 0.000000 
torque (ref. CG): 0.000000 (roll) 0.000000 (pitch) 0.000000 (yaw) 
----------------------------------------------------- 
step 48, time 0.036000, maxvel 30.000000, total vol 359.697, vol(u>maxvel) 0, cell count 0
bounding box (containing cells with vel>maxvel): xmin inf inf inf, xmax -inf -inf -infm 
bounding box of vehicle: xmin inf inf inf, xmax -inf -inf -infm 
gts area: 0 
yplus max: -inf, yplus min: inf 
position of yplus max: -inf -inf -inf 
yplus prom: -nan 
forces: 0.000000 0.000000 0.000000 
Drag coefficient: 0.000000 
torque (ref. CG): 0.000000 (roll) 0.000000 (pitch) 0.000000 (yaw) 
----------------------------------------------------- 
step 49, time 0.036750, maxvel 30.000000, total vol 359.697, vol(u>maxvel) 0, cell count 0
bounding box (containing cells with vel>maxvel): xmin inf inf inf, xmax -inf -inf -infm 
bounding box of vehicle: xmin inf inf inf, xmax -inf -inf -infm 
gts area: 0 
yplus max: -inf, yplus min: inf 
position of yplus max: -inf -inf -inf 
yplus prom: -nan 
forces: 0.000000 0.000000 0.000000 
Drag coefficient: 0.000000 
torque (ref. CG): 0.000000 (roll) 0.000000 (pitch) 0.000000 (yaw) 
----------------------------------------------------- 
step 50, time 0.037500, maxvel 30.000000, total vol 359.697, vol(u>maxvel) 0, cell count 0
bounding box (containing cells with vel>maxvel): xmin inf inf inf, xmax -inf -inf -infm 
bounding box of vehicle: xmin inf inf inf, xmax -inf -inf -infm 
gts area: 0 
yplus max: -inf, yplus min: inf 
position of yplus max: -inf -inf -inf 
yplus prom: -nan 
forces: 0.000000 0.000000 0.000000 
Drag coefficient: 0.000000 
torque (ref. CG): 0.000000 (roll) 0.000000 (pitch) 0.000000 (yaw) 
----------------------------------------------------- 
step 51, time 0.038250, maxvel 30.000000, total vol 359.697, vol(u>maxvel) 0, cell count 0
bounding box (containing cells with vel>maxvel): xmin inf inf inf, xmax -inf -inf -infm 
bounding box of vehicle: xmin inf inf inf, xmax -inf -inf -infm 
gts area: 0 
yplus max: -inf, yplus min: inf 
position of yplus max: -inf -inf -inf 
yplus prom: -nan 
forces: 0.000000 0.000000 0.000000 
Drag coefficient: 0.000000 
torque (ref. CG): 0.000000 (roll) 0.000000 (pitch) 0.000000 (yaw) 
----------------------------------------------------- 
step 52, time 0.039000, maxvel 30.000000, total vol 359.697, vol(u>maxvel) 0, cell count 0
bounding box (containing cells with vel>maxvel): xmin inf inf inf, xmax -inf -inf -infm 
bounding box of vehicle: xmin inf inf inf, xmax -inf -inf -infm 
gts area: 0 
yplus max: -inf, yplus min: inf 
position of yplus max: -inf -inf -inf 
yplus prom: -nan 
forces: 0.000000 0.000000 0.000000 
Drag coefficient: 0.000000 
torque (ref. CG): 0.000000 (roll) 0.000000 (pitch) 0.000000 (yaw) 
----------------------------------------------------- 
step 53, time 0.039750, maxvel 30.000000, total vol 359.697, vol(u>maxvel) 0, cell count 0
bounding box (containing cells with vel>maxvel): xmin inf inf inf, xmax -inf -inf -infm 
bounding box of vehicle: xmin inf inf inf, xmax -inf -inf -infm 
gts area: 0 
yplus max: -inf, yplus min: inf 
position of yplus max: -inf -inf -inf 
yplus prom: -nan 
forces: 0.000000 0.000000 0.000000 
Drag coefficient: 0.000000 
torque (ref. CG): 0.000000 (roll) 0.000000 (pitch) 0.000000 (yaw) 
----------------------------------------------------- 
step 54, time 0.040500, maxvel 30.000000, total vol 359.697, vol(u>maxvel) 0, cell count 0
bounding box (containing cells with vel>maxvel): xmin inf inf inf, xmax -inf -inf -infm 
bounding box of vehicle: xmin inf inf inf, xmax -inf -inf -infm 
gts area: 0 
yplus max: -inf, yplus min: inf 
position of yplus max: -inf -inf -inf 
yplus prom: -nan 
forces: 0.000000 0.000000 0.000000 
Drag coefficient: 0.000000 
torque (ref. CG): 0.000000 (roll) 0.000000 (pitch) 0.000000 (yaw) 
----------------------------------------------------- 
step 55, time 0.041250, maxvel 30.000000, total vol 359.697, vol(u>maxvel) 0, cell count 0
bounding box (containing cells with vel>maxvel): xmin inf inf inf, xmax -inf -inf -infm 
bounding box of vehicle: xmin inf inf inf, xmax -inf -inf -infm 
gts area: 0 
yplus max: -inf, yplus min: inf 
position of yplus max: -inf -inf -inf 
yplus prom: -nan 
forces: 0.000000 0.000000 0.000000 
Drag coefficient: 0.000000 
torque (ref. CG): 0.000000 (roll) 0.000000 (pitch) 0.000000 (yaw) 
----------------------------------------------------- 
step 56, time 0.042000, maxvel 30.000000, total vol 359.697, vol(u>maxvel) 0, cell count 0
bounding box (containing cells with vel>maxvel): xmin inf inf inf, xmax -inf -inf -infm 
bounding box of vehicle: xmin inf inf inf, xmax -inf -inf -infm 
gts area: 0 
yplus max: -inf, yplus min: inf 
position of yplus max: -inf -inf -inf 
yplus prom: -nan 
forces: 0.000000 0.000000 0.000000 
Drag coefficient: 0.000000 
torque (ref. CG): 0.000000 (roll) 0.000000 (pitch) 0.000000 (yaw) 
----------------------------------------------------- 
step 57, time 0.042750, maxvel 30.000000, total vol 359.697, vol(u>maxvel) 0, cell count 0
bounding box (containing cells with vel>maxvel): xmin inf inf inf, xmax -inf -inf -infm 
bounding box of vehicle: xmin inf inf inf, xmax -inf -inf -infm 
gts area: 0 
yplus max: -inf, yplus min: inf 
position of yplus max: -inf -inf -inf 
yplus prom: -nan 
forces: 0.000000 0.000000 0.000000 
Drag coefficient: 0.000000 
torque (ref. CG): 0.000000 (roll) 0.000000 (pitch) 0.000000 (yaw) 
----------------------------------------------------- 
step 58, time 0.043500, maxvel 30.000000, total vol 359.697, vol(u>maxvel) 0, cell count 0
bounding box (containing cells with vel>maxvel): xmin inf inf inf, xmax -inf -inf -infm 
bounding box of vehicle: xmin inf inf inf, xmax -inf -inf -infm 
gts area: 0 
yplus max: -inf, yplus min: inf 
position of yplus max: -inf -inf -inf 
yplus prom: -nan 
forces: 0.000000 0.000000 0.000000 
Drag coefficient: 0.000000 
torque (ref. CG): 0.000000 (roll) 0.000000 (pitch) 0.000000 (yaw) 
----------------------------------------------------- 
step 59, time 0.044250, maxvel 30.000000, total vol 359.697, vol(u>maxvel) 0, cell count 0
bounding box (containing cells with vel>maxvel): xmin inf inf inf, xmax -inf -inf -infm 
bounding box of vehicle: xmin inf inf inf, xmax -inf -inf -infm 
gts area: 0 
yplus max: -inf, yplus min: inf 
position of yplus max: -inf -inf -inf 
yplus prom: -nan 
forces: 0.000000 0.000000 0.000000 
Drag coefficient: 0.000000 
torque (ref. CG): 0.000000 (roll) 0.000000 (pitch) 0.000000 (yaw) 
----------------------------------------------------- 
step 60, time 0.045000, maxvel 30.000000, total vol 359.697, vol(u>maxvel) 0, cell count 0
bounding box (containing cells with vel>maxvel): xmin inf inf inf, xmax -inf -inf -infm 
bounding box of vehicle: xmin inf inf inf, xmax -inf -inf -infm 
gts area: 0 
yplus max: -inf, yplus min: inf 
position of yplus max: -inf -inf -inf 
yplus prom: -nan 
forces: 0.000000 0.000000 0.000000 
Drag coefficient: 0.000000 
torque (ref. CG): 0.000000 (roll) 0.000000 (pitch) 0.000000 (yaw) 
----------------------------------------------------- 
step 61, time 0.045750, maxvel 30.000000, total vol 359.697, vol(u>maxvel) 0, cell count 0
bounding box (containing cells with vel>maxvel): xmin inf inf inf, xmax -inf -inf -infm 
bounding box of vehicle: xmin inf inf inf, xmax -inf -inf -infm 
gts area: 0 
yplus max: -inf, yplus min: inf 
position of yplus max: -inf -inf -inf 
yplus prom: -nan 
forces: 0.000000 0.000000 0.000000 
Drag coefficient: 0.000000 
torque (ref. CG): 0.000000 (roll) 0.000000 (pitch) 0.000000 (yaw) 
----------------------------------------------------- 
step 62, time 0.046500, maxvel 30.000000, total vol 359.697, vol(u>maxvel) 0, cell count 0
bounding box (containing cells with vel>maxvel): xmin inf inf inf, xmax -inf -inf -infm 
bounding box of vehicle: xmin inf inf inf, xmax -inf -inf -infm 
gts area: 0 
yplus max: -inf, yplus min: inf 
position of yplus max: -inf -inf -inf 
yplus prom: -nan 
forces: 0.000000 0.000000 0.000000 
Drag coefficient: 0.000000 
torque (ref. CG): 0.000000 (roll) 0.000000 (pitch) 0.000000 (yaw) 
----------------------------------------------------- 
step 63, time 0.047250, maxvel 30.000000, total vol 359.697, vol(u>maxvel) 0, cell count 0
bounding box (containing cells with vel>maxvel): xmin inf inf inf, xmax -inf -inf -infm 
bounding box of vehicle: xmin inf inf inf, xmax -inf -inf -infm 
gts area: 0 
yplus max: -inf, yplus min: inf 
position of yplus max: -inf -inf -inf 
yplus prom: -nan 
forces: 0.000000 0.000000 0.000000 
Drag coefficient: 0.000000 
torque (ref. CG): 0.000000 (roll) 0.000000 (pitch) 0.000000 (yaw) 
----------------------------------------------------- 
step 64, time 0.048000, maxvel 30.000000, total vol 359.697, vol(u>maxvel) 0, cell count 0
bounding box (containing cells with vel>maxvel): xmin inf inf inf, xmax -inf -inf -infm 
bounding box of vehicle: xmin inf inf inf, xmax -inf -inf -infm 
gts area: 0 
yplus max: -inf, yplus min: inf 
position of yplus max: -inf -inf -inf 
yplus prom: -nan 
forces: 0.000000 0.000000 0.000000 
Drag coefficient: 0.000000 
torque (ref. CG): 0.000000 (roll) 0.000000 (pitch) 0.000000 (yaw) 
----------------------------------------------------- 
step 65, time 0.048750, maxvel 30.000000, total vol 359.697, vol(u>maxvel) 0, cell count 0
bounding box (containing cells with vel>maxvel): xmin inf inf inf, xmax -inf -inf -infm 
bounding box of vehicle: xmin inf inf inf, xmax -inf -inf -infm 
gts area: 0 
yplus max: -inf, yplus min: inf 
position of yplus max: -inf -inf -inf 
yplus prom: -nan 
forces: 0.000000 0.000000 0.000000 
Drag coefficient: 0.000000 
torque (ref. CG): 0.000000 (roll) 0.000000 (pitch) 0.000000 (yaw) 
----------------------------------------------------- 
step 66, time 0.049500, maxvel 30.000000, total vol 359.697, vol(u>maxvel) 0, cell count 0
bounding box (containing cells with vel>maxvel): xmin inf inf inf, xmax -inf -inf -infm 
bounding box of vehicle: xmin inf inf inf, xmax -inf -inf -infm 
gts area: 0 
yplus max: -inf, yplus min: inf 
position of yplus max: -inf -inf -inf 
yplus prom: -nan 
forces: 0.000000 0.000000 0.000000 
Drag coefficient: 0.000000 
torque (ref. CG): 0.000000 (roll) 0.000000 (pitch) 0.000000 (yaw) 
----------------------------------------------------- 
step 67, time 0.050250, maxvel 30.000000, total vol 359.697, vol(u>maxvel) 0, cell count 0
bounding box (containing cells with vel>maxvel): xmin inf inf inf, xmax -inf -inf -infm 
bounding box of vehicle: xmin inf inf inf, xmax -inf -inf -infm 
gts area: 0 
yplus max: -inf, yplus min: inf 
position of yplus max: -inf -inf -inf 
yplus prom: -nan 
forces: 0.000000 0.000000 0.000000 
Drag coefficient: 0.000000 
torque (ref. CG): 0.000000 (roll) 0.000000 (pitch) 0.000000 (yaw) 
----------------------------------------------------- 
step 68, time 0.051000, maxvel 30.000000, total vol 359.697, vol(u>maxvel) 0, cell count 0
bounding box (containing cells with vel>maxvel): xmin inf inf inf, xmax -inf -inf -infm 
bounding box of vehicle: xmin inf inf inf, xmax -inf -inf -infm 
gts area: 0 
yplus max: -inf, yplus min: inf 
position of yplus max: -inf -inf -inf 
yplus prom: -nan 
forces: 0.000000 0.000000 0.000000 
Drag coefficient: 0.000000 
torque (ref. CG): 0.000000 (roll) 0.000000 (pitch) 0.000000 (yaw) 
----------------------------------------------------- 
step 69, time 0.051750, maxvel 30.000000, total vol 359.697, vol(u>maxvel) 0, cell count 0
bounding box (containing cells with vel>maxvel): xmin inf inf inf, xmax -inf -inf -infm 
bounding box of vehicle: xmin inf inf inf, xmax -inf -inf -infm 
gts area: 0 
yplus max: -inf, yplus min: inf 
position of yplus max: -inf -inf -inf 
yplus prom: -nan 
forces: 0.000000 0.000000 0.000000 
Drag coefficient: 0.000000 
torque (ref. CG): 0.000000 (roll) 0.000000 (pitch) 0.000000 (yaw) 
----------------------------------------------------- 
step 70, time 0.052500, maxvel 30.000000, total vol 359.697, vol(u>maxvel) 0, cell count 0
bounding box (containing cells with vel>maxvel): xmin inf inf inf, xmax -inf -inf -infm 
bounding box of vehicle: xmin inf inf inf, xmax -inf -inf -infm 
gts area: 0 
yplus max: -inf, yplus min: inf 
position of yplus max: -inf -inf -inf 
yplus prom: -nan 
forces: 0.000000 0.000000 0.000000 
Drag coefficient: 0.000000 
torque (ref. CG): 0.000000 (roll) 0.000000 (pitch) 0.000000 (yaw) 
----------------------------------------------------- 
step 71, time 0.053250, maxvel 30.000000, total vol 359.697, vol(u>maxvel) 0, cell count 0
bounding box (containing cells with vel>maxvel): xmin inf inf inf, xmax -inf -inf -infm 
bounding box of vehicle: xmin inf inf inf, xmax -inf -inf -infm 
gts area: 0 
yplus max: -inf, yplus min: inf 
position of yplus max: -inf -inf -inf 
yplus prom: -nan 
forces: 0.000000 0.000000 0.000000 
Drag coefficient: 0.000000 
torque (ref. CG): 0.000000 (roll) 0.000000 (pitch) 0.000000 (yaw) 
----------------------------------------------------- 
step 72, time 0.054000, maxvel 30.000000, total vol 359.697, vol(u>maxvel) 0, cell count 0
bounding box (containing cells with vel>maxvel): xmin inf inf inf, xmax -inf -inf -infm 
bounding box of vehicle: xmin inf inf inf, xmax -inf -inf -infm 
gts area: 0 
yplus max: -inf, yplus min: inf 
position of yplus max: -inf -inf -inf 
yplus prom: -nan 
forces: 0.000000 0.000000 0.000000 
Drag coefficient: 0.000000 
torque (ref. CG): 0.000000 (roll) 0.000000 (pitch) 0.000000 (yaw) 
----------------------------------------------------- 
step 73, time 0.054750, maxvel 30.000000, total vol 359.697, vol(u>maxvel) 0, cell count 0
bounding box (containing cells with vel>maxvel): xmin inf inf inf, xmax -inf -inf -infm 
bounding box of vehicle: xmin inf inf inf, xmax -inf -inf -infm 
gts area: 0 
yplus max: -inf, yplus min: inf 
position of yplus max: -inf -inf -inf 
yplus prom: -nan 
forces: 0.000000 0.000000 0.000000 
Drag coefficient: 0.000000 
torque (ref. CG): 0.000000 (roll) 0.000000 (pitch) 0.000000 (yaw) 
----------------------------------------------------- 
step 74, time 0.055500, maxvel 30.000000, total vol 359.697, vol(u>maxvel) 0, cell count 0
bounding box (containing cells with vel>maxvel): xmin inf inf inf, xmax -inf -inf -infm 
bounding box of vehicle: xmin inf inf inf, xmax -inf -inf -infm 
gts area: 0 
yplus max: -inf, yplus min: inf 
position of yplus max: -inf -inf -inf 
yplus prom: -nan 
forces: 0.000000 0.000000 0.000000 
Drag coefficient: 0.000000 
torque (ref. CG): 0.000000 (roll) 0.000000 (pitch) 0.000000 (yaw) 
----------------------------------------------------- 
step 75, time 0.056250, maxvel 30.000000, total vol 359.697, vol(u>maxvel) 0, cell count 0
bounding box (containing cells with vel>maxvel): xmin inf inf inf, xmax -inf -inf -infm 
bounding box of vehicle: xmin inf inf inf, xmax -inf -inf -infm 
gts area: 0 
yplus max: -inf, yplus min: inf 
position of yplus max: -inf -inf -inf 
yplus prom: -nan 
forces: 0.000000 0.000000 0.000000 
Drag coefficient: 0.000000 
torque (ref. CG): 0.000000 (roll) 0.000000 (pitch) 0.000000 (yaw) 
----------------------------------------------------- 
step 76, time 0.057000, maxvel 30.000000, total vol 359.697, vol(u>maxvel) 0, cell count 0
bounding box (containing cells with vel>maxvel): xmin inf inf inf, xmax -inf -inf -infm 
bounding box of vehicle: xmin inf inf inf, xmax -inf -inf -infm 
gts area: 0 
yplus max: -inf, yplus min: inf 
position of yplus max: -inf -inf -inf 
yplus prom: -nan 
forces: 0.000000 0.000000 0.000000 
Drag coefficient: 0.000000 
torque (ref. CG): 0.000000 (roll) 0.000000 (pitch) 0.000000 (yaw) 
----------------------------------------------------- 
step 77, time 0.057750, maxvel 30.000000, total vol 359.697, vol(u>maxvel) 0, cell count 0
bounding box (containing cells with vel>maxvel): xmin inf inf inf, xmax -inf -inf -infm 
bounding box of vehicle: xmin inf inf inf, xmax -inf -inf -infm 
gts area: 0 
yplus max: -inf, yplus min: inf 
position of yplus max: -inf -inf -inf 
yplus prom: -nan 
forces: 0.000000 0.000000 0.000000 
Drag coefficient: 0.000000 
torque (ref. CG): 0.000000 (roll) 0.000000 (pitch) 0.000000 (yaw) 
----------------------------------------------------- 
step 78, time 0.058500, maxvel 30.000000, total vol 359.697, vol(u>maxvel) 0, cell count 0
bounding box (containing cells with vel>maxvel): xmin inf inf inf, xmax -inf -inf -infm 
bounding box of vehicle: xmin inf inf inf, xmax -inf -inf -infm 
gts area: 0 
yplus max: -inf, yplus min: inf 
position of yplus max: -inf -inf -inf 
yplus prom: -nan 
forces: 0.000000 0.000000 0.000000 
Drag coefficient: 0.000000 
torque (ref. CG): 0.000000 (roll) 0.000000 (pitch) 0.000000 (yaw) 
----------------------------------------------------- 
step 79, time 0.059250, maxvel 30.000000, total vol 359.697, vol(u>maxvel) 0, cell count 0
bounding box (containing cells with vel>maxvel): xmin inf inf inf, xmax -inf -inf -infm 
bounding box of vehicle: xmin inf inf inf, xmax -inf -inf -infm 
gts area: 0 
yplus max: -inf, yplus min: inf 
position of yplus max: -inf -inf -inf 
yplus prom: -nan 
forces: 0.000000 0.000000 0.000000 
Drag coefficient: 0.000000 
torque (ref. CG): 0.000000 (roll) 0.000000 (pitch) 0.000000 (yaw) 
----------------------------------------------------- 
step 80, time 0.060000, maxvel 30.000000, total vol 359.697, vol(u>maxvel) 0, cell count 0
bounding box (containing cells with vel>maxvel): xmin inf inf inf, xmax -inf -inf -infm 
bounding box of vehicle: xmin inf inf inf, xmax -inf -inf -infm 
gts area: 0 
yplus max: -inf, yplus min: inf 
position of yplus max: -inf -inf -inf 
yplus prom: -nan 
forces: 0.000000 0.000000 0.000000 
Drag coefficient: 0.000000 
torque (ref. CG): 0.000000 (roll) 0.000000 (pitch) 0.000000 (yaw) 
----------------------------------------------------- 
step 81, time 0.060750, maxvel 30.000000, total vol 359.697, vol(u>maxvel) 0, cell count 0
bounding box (containing cells with vel>maxvel): xmin inf inf inf, xmax -inf -inf -infm 
bounding box of vehicle: xmin inf inf inf, xmax -inf -inf -infm 
gts area: 0 
yplus max: -inf, yplus min: inf 
position of yplus max: -inf -inf -inf 
yplus prom: -nan 
forces: 0.000000 0.000000 0.000000 
Drag coefficient: 0.000000 
torque (ref. CG): 0.000000 (roll) 0.000000 (pitch) 0.000000 (yaw) 
----------------------------------------------------- 
step 82, time 0.061500, maxvel 30.000000, total vol 359.697, vol(u>maxvel) 0, cell count 0
bounding box (containing cells with vel>maxvel): xmin inf inf inf, xmax -inf -inf -infm 
bounding box of vehicle: xmin inf inf inf, xmax -inf -inf -infm 
gts area: 0 
yplus max: -inf, yplus min: inf 
position of yplus max: -inf -inf -inf 
yplus prom: -nan 
forces: 0.000000 0.000000 0.000000 
Drag coefficient: 0.000000 
torque (ref. CG): 0.000000 (roll) 0.000000 (pitch) 0.000000 (yaw) 
----------------------------------------------------- 
step 83, time 0.062250, maxvel 30.000000, total vol 359.697, vol(u>maxvel) 0, cell count 0
bounding box (containing cells with vel>maxvel): xmin inf inf inf, xmax -inf -inf -infm 
bounding box of vehicle: xmin inf inf inf, xmax -inf -inf -infm 
gts area: 0 
yplus max: -inf, yplus min: inf 
position of yplus max: -inf -inf -inf 
yplus prom: -nan 
forces: 0.000000 0.000000 0.000000 
Drag coefficient: 0.000000 
torque (ref. CG): 0.000000 (roll) 0.000000 (pitch) 0.000000 (yaw) 
----------------------------------------------------- 
step 84, time 0.063000, maxvel 30.000000, total vol 359.697, vol(u>maxvel) 0, cell count 0
bounding box (containing cells with vel>maxvel): xmin inf inf inf, xmax -inf -inf -infm 
bounding box of vehicle: xmin inf inf inf, xmax -inf -inf -infm 
gts area: 0 
yplus max: -inf, yplus min: inf 
position of yplus max: -inf -inf -inf 
yplus prom: -nan 
forces: 0.000000 0.000000 0.000000 
Drag coefficient: 0.000000 
torque (ref. CG): 0.000000 (roll) 0.000000 (pitch) 0.000000 (yaw) 
----------------------------------------------------- 
step 85, time 0.063750, maxvel 30.000000, total vol 359.697, vol(u>maxvel) 0, cell count 0
bounding box (containing cells with vel>maxvel): xmin inf inf inf, xmax -inf -inf -infm 
bounding box of vehicle: xmin inf inf inf, xmax -inf -inf -infm 
gts area: 0 
yplus max: -inf, yplus min: inf 
position of yplus max: -inf -inf -inf 
yplus prom: -nan 
forces: 0.000000 0.000000 0.000000 
Drag coefficient: 0.000000 
torque (ref. CG): 0.000000 (roll) 0.000000 (pitch) 0.000000 (yaw) 
----------------------------------------------------- 
step 86, time 0.064500, maxvel 30.000000, total vol 359.697, vol(u>maxvel) 0, cell count 0
bounding box (containing cells with vel>maxvel): xmin inf inf inf, xmax -inf -inf -infm 
bounding box of vehicle: xmin inf inf inf, xmax -inf -inf -infm 
gts area: 0 
yplus max: -inf, yplus min: inf 
position of yplus max: -inf -inf -inf 
yplus prom: -nan 
forces: 0.000000 0.000000 0.000000 
Drag coefficient: 0.000000 
torque (ref. CG): 0.000000 (roll) 0.000000 (pitch) 0.000000 (yaw) 
----------------------------------------------------- 
step 87, time 0.065250, maxvel 30.000000, total vol 359.697, vol(u>maxvel) 0, cell count 0
bounding box (containing cells with vel>maxvel): xmin inf inf inf, xmax -inf -inf -infm 
bounding box of vehicle: xmin inf inf inf, xmax -inf -inf -infm 
gts area: 0 
yplus max: -inf, yplus min: inf 
position of yplus max: -inf -inf -inf 
yplus prom: -nan 
forces: 0.000000 0.000000 0.000000 
Drag coefficient: 0.000000 
torque (ref. CG): 0.000000 (roll) 0.000000 (pitch) 0.000000 (yaw) 
----------------------------------------------------- 
step 88, time 0.066000, maxvel 30.000000, total vol 359.697, vol(u>maxvel) 0, cell count 0
bounding box (containing cells with vel>maxvel): xmin inf inf inf, xmax -inf -inf -infm 
bounding box of vehicle: xmin inf inf inf, xmax -inf -inf -infm 
gts area: 0 
yplus max: -inf, yplus min: inf 
position of yplus max: -inf -inf -inf 
yplus prom: -nan 
forces: 0.000000 0.000000 0.000000 
Drag coefficient: 0.000000 
torque (ref. CG): 0.000000 (roll) 0.000000 (pitch) 0.000000 (yaw) 
----------------------------------------------------- 
step 89, time 0.066750, maxvel 30.000000, total vol 359.697, vol(u>maxvel) 0, cell count 0
bounding box (containing cells with vel>maxvel): xmin inf inf inf, xmax -inf -inf -infm 
bounding box of vehicle: xmin inf inf inf, xmax -inf -inf -infm 
gts area: 0 
yplus max: -inf, yplus min: inf 
position of yplus max: -inf -inf -inf 
yplus prom: -nan 
forces: 0.000000 0.000000 0.000000 
Drag coefficient: 0.000000 
torque (ref. CG): 0.000000 (roll) 0.000000 (pitch) 0.000000 (yaw) 
----------------------------------------------------- 
step 90, time 0.067500, maxvel 30.000000, total vol 359.697, vol(u>maxvel) 0, cell count 0
bounding box (containing cells with vel>maxvel): xmin inf inf inf, xmax -inf -inf -infm 
bounding box of vehicle: xmin inf inf inf, xmax -inf -inf -infm 
gts area: 0 
yplus max: -inf, yplus min: inf 
position of yplus max: -inf -inf -inf 
yplus prom: -nan 
forces: 0.000000 0.000000 0.000000 
Drag coefficient: 0.000000 
torque (ref. CG): 0.000000 (roll) 0.000000 (pitch) 0.000000 (yaw) 
----------------------------------------------------- 
step 91, time 0.068250, maxvel 30.000000, total vol 359.697, vol(u>maxvel) 0, cell count 0
bounding box (containing cells with vel>maxvel): xmin inf inf inf, xmax -inf -inf -infm 
bounding box of vehicle: xmin inf inf inf, xmax -inf -inf -infm 
gts area: 0 
yplus max: -inf, yplus min: inf 
position of yplus max: -inf -inf -inf 
yplus prom: -nan 
forces: 0.000000 0.000000 0.000000 
Drag coefficient: 0.000000 
torque (ref. CG): 0.000000 (roll) 0.000000 (pitch) 0.000000 (yaw) 
----------------------------------------------------- 
step 92, time 0.069000, maxvel 30.000000, total vol 359.697, vol(u>maxvel) 0, cell count 0
bounding box (containing cells with vel>maxvel): xmin inf inf inf, xmax -inf -inf -infm 
bounding box of vehicle: xmin inf inf inf, xmax -inf -inf -infm 
gts area: 0 
yplus max: -inf, yplus min: inf 
position of yplus max: -inf -inf -inf 
yplus prom: -nan 
forces: 0.000000 0.000000 0.000000 
Drag coefficient: 0.000000 
torque (ref. CG): 0.000000 (roll) 0.000000 (pitch) 0.000000 (yaw) 
----------------------------------------------------- 
step 93, time 0.069750, maxvel 30.000000, total vol 359.697, vol(u>maxvel) 0, cell count 0
bounding box (containing cells with vel>maxvel): xmin inf inf inf, xmax -inf -inf -infm 
bounding box of vehicle: xmin inf inf inf, xmax -inf -inf -infm 
gts area: 0 
yplus max: -inf, yplus min: inf 
position of yplus max: -inf -inf -inf 
yplus prom: -nan 
forces: 0.000000 0.000000 0.000000 
Drag coefficient: 0.000000 
torque (ref. CG): 0.000000 (roll) 0.000000 (pitch) 0.000000 (yaw) 
----------------------------------------------------- 
step 94, time 0.070500, maxvel 30.000000, total vol 359.697, vol(u>maxvel) 0, cell count 0
bounding box (containing cells with vel>maxvel): xmin inf inf inf, xmax -inf -inf -infm 
bounding box of vehicle: xmin inf inf inf, xmax -inf -inf -infm 
gts area: 0 
yplus max: -inf, yplus min: inf 
position of yplus max: -inf -inf -inf 
yplus prom: -nan 
forces: 0.000000 0.000000 0.000000 
Drag coefficient: 0.000000 
torque (ref. CG): 0.000000 (roll) 0.000000 (pitch) 0.000000 (yaw) 
----------------------------------------------------- 
step 95, time 0.071250, maxvel 30.000000, total vol 359.697, vol(u>maxvel) 0, cell count 0
bounding box (containing cells with vel>maxvel): xmin inf inf inf, xmax -inf -inf -infm 
bounding box of vehicle: xmin inf inf inf, xmax -inf -inf -infm 
gts area: 0 
yplus max: -inf, yplus min: inf 
position of yplus max: -inf -inf -inf 
yplus prom: -nan 
forces: 0.000000 0.000000 0.000000 
Drag coefficient: 0.000000 
torque (ref. CG): 0.000000 (roll) 0.000000 (pitch) 0.000000 (yaw) 
----------------------------------------------------- 
step 96, time 0.072000, maxvel 30.000000, total vol 359.697, vol(u>maxvel) 0, cell count 0
bounding box (containing cells with vel>maxvel): xmin inf inf inf, xmax -inf -inf -infm 
bounding box of vehicle: xmin inf inf inf, xmax -inf -inf -infm 
gts area: 0 
yplus max: -inf, yplus min: inf 
position of yplus max: -inf -inf -inf 
yplus prom: -nan 
forces: 0.000000 0.000000 0.000000 
Drag coefficient: 0.000000 
torque (ref. CG): 0.000000 (roll) 0.000000 (pitch) 0.000000 (yaw) 
----------------------------------------------------- 
step 97, time 0.072750, maxvel 30.000000, total vol 359.697, vol(u>maxvel) 0, cell count 0
bounding box (containing cells with vel>maxvel): xmin inf inf inf, xmax -inf -inf -infm 
bounding box of vehicle: xmin inf inf inf, xmax -inf -inf -infm 
gts area: 0 
yplus max: -inf, yplus min: inf 
position of yplus max: -inf -inf -inf 
yplus prom: -nan 
forces: 0.000000 0.000000 0.000000 
Drag coefficient: 0.000000 
torque (ref. CG): 0.000000 (roll) 0.000000 (pitch) 0.000000 (yaw) 
----------------------------------------------------- 
step 98, time 0.073500, maxvel 30.000000, total vol 359.697, vol(u>maxvel) 0, cell count 0
bounding box (containing cells with vel>maxvel): xmin inf inf inf, xmax -inf -inf -infm 
bounding box of vehicle: xmin inf inf inf, xmax -inf -inf -infm 
gts area: 0 
yplus max: -inf, yplus min: inf 
position of yplus max: -inf -inf -inf 
yplus prom: -nan 
forces: 0.000000 0.000000 0.000000 
Drag coefficient: 0.000000 
torque (ref. CG): 0.000000 (roll) 0.000000 (pitch) 0.000000 (yaw) 
----------------------------------------------------- 
step 99, time 0.074250, maxvel 30.000000, total vol 359.697, vol(u>maxvel) 0, cell count 0
bounding box (containing cells with vel>maxvel): xmin inf inf inf, xmax -inf -inf -infm 
bounding box of vehicle: xmin inf inf inf, xmax -inf -inf -infm 
gts area: 0 
yplus max: -inf, yplus min: inf 
position of yplus max: -inf -inf -inf 
yplus prom: -nan 
forces: 0.000000 0.000000 0.000000 
Drag coefficient: 0.000000 
torque (ref. CG): 0.000000 (roll) 0.000000 (pitch) 0.000000 (yaw) 
----------------------------------------------------- 
step 100, time 0.075000, maxvel 30.000000, total vol 359.697, vol(u>maxvel) 0, cell count 0
bounding box (containing cells with vel>maxvel): xmin inf inf inf, xmax -inf -inf -infm 
bounding box of vehicle: xmin inf inf inf, xmax -inf -inf -infm 
gts area: 0 
yplus max: -inf, yplus min: inf 
position of yplus max: -inf -inf -inf 
yplus prom: -nan 
forces: 0.000000 0.000000 0.000000 
Drag coefficient: 0.000000 
torque (ref. CG): 0.000000 (roll) 0.000000 (pitch) 0.000000 (yaw) 
----------------------------------------------------- 
step 101, time 0.075750, maxvel 30.000000, total vol 359.697, vol(u>maxvel) 0, cell count 0
bounding box (containing cells with vel>maxvel): xmin inf inf inf, xmax -inf -inf -infm 
bounding box of vehicle: xmin inf inf inf, xmax -inf -inf -infm 
gts area: 0 
yplus max: -inf, yplus min: inf 
position of yplus max: -inf -inf -inf 
yplus prom: -nan 
forces: 0.000000 0.000000 0.000000 
Drag coefficient: 0.000000 
torque (ref. CG): 0.000000 (roll) 0.000000 (pitch) 0.000000 (yaw) 
----------------------------------------------------- 
step 102, time 0.076500, maxvel 30.000000, total vol 359.697, vol(u>maxvel) 0, cell count 0
bounding box (containing cells with vel>maxvel): xmin inf inf inf, xmax -inf -inf -infm 
bounding box of vehicle: xmin inf inf inf, xmax -inf -inf -infm 
gts area: 0 
yplus max: -inf, yplus min: inf 
position of yplus max: -inf -inf -inf 
yplus prom: -nan 
forces: 0.000000 0.000000 0.000000 
Drag coefficient: 0.000000 
torque (ref. CG): 0.000000 (roll) 0.000000 (pitch) 0.000000 (yaw) 
----------------------------------------------------- 
step 103, time 0.077250, maxvel 30.000000, total vol 359.697, vol(u>maxvel) 0, cell count 0
bounding box (containing cells with vel>maxvel): xmin inf inf inf, xmax -inf -inf -infm 
bounding box of vehicle: xmin inf inf inf, xmax -inf -inf -infm 
gts area: 0 
yplus max: -inf, yplus min: inf 
position of yplus max: -inf -inf -inf 
yplus prom: -nan 
forces: 0.000000 0.000000 0.000000 
Drag coefficient: 0.000000 
torque (ref. CG): 0.000000 (roll) 0.000000 (pitch) 0.000000 (yaw) 
----------------------------------------------------- 
step 104, time 0.078000, maxvel 30.000000, total vol 359.697, vol(u>maxvel) 0, cell count 0
bounding box (containing cells with vel>maxvel): xmin inf inf inf, xmax -inf -inf -infm 
bounding box of vehicle: xmin inf inf inf, xmax -inf -inf -infm 
gts area: 0 
yplus max: -inf, yplus min: inf 
position of yplus max: -inf -inf -inf 
yplus prom: -nan 
forces: 0.000000 0.000000 0.000000 
Drag coefficient: 0.000000 
torque (ref. CG): 0.000000 (roll) 0.000000 (pitch) 0.000000 (yaw) 
----------------------------------------------------- 
step 105, time 0.078750, maxvel 30.000000, total vol 359.697, vol(u>maxvel) 0, cell count 0
bounding box (containing cells with vel>maxvel): xmin inf inf inf, xmax -inf -inf -infm 
bounding box of vehicle: xmin inf inf inf, xmax -inf -inf -infm 
gts area: 0 
yplus max: -inf, yplus min: inf 
position of yplus max: -inf -inf -inf 
yplus prom: -nan 
forces: 0.000000 0.000000 0.000000 
Drag coefficient: 0.000000 
torque (ref. CG): 0.000000 (roll) 0.000000 (pitch) 0.000000 (yaw) 
----------------------------------------------------- 
step 106, time 0.079500, maxvel 30.000000, total vol 359.697, vol(u>maxvel) 0, cell count 0
bounding box (containing cells with vel>maxvel): xmin inf inf inf, xmax -inf -inf -infm 
bounding box of vehicle: xmin inf inf inf, xmax -inf -inf -infm 
gts area: 0 
yplus max: -inf, yplus min: inf 
position of yplus max: -inf -inf -inf 
yplus prom: -nan 
forces: 0.000000 0.000000 0.000000 
Drag coefficient: 0.000000 
torque (ref. CG): 0.000000 (roll) 0.000000 (pitch) 0.000000 (yaw) 
----------------------------------------------------- 
step 107, time 0.080250, maxvel 30.000000, total vol 359.697, vol(u>maxvel) 0, cell count 0
bounding box (containing cells with vel>maxvel): xmin inf inf inf, xmax -inf -inf -infm 
bounding box of vehicle: xmin inf inf inf, xmax -inf -inf -infm 
gts area: 0 
yplus max: -inf, yplus min: inf 
position of yplus max: -inf -inf -inf 
yplus prom: -nan 
forces: 0.000000 0.000000 0.000000 
Drag coefficient: 0.000000 
torque (ref. CG): 0.000000 (roll) 0.000000 (pitch) 0.000000 (yaw) 
----------------------------------------------------- 
step 108, time 0.081000, maxvel 30.000000, total vol 359.697, vol(u>maxvel) 0, cell count 0
bounding box (containing cells with vel>maxvel): xmin inf inf inf, xmax -inf -inf -infm 
bounding box of vehicle: xmin inf inf inf, xmax -inf -inf -infm 
gts area: 0 
yplus max: -inf, yplus min: inf 
position of yplus max: -inf -inf -inf 
yplus prom: -nan 
forces: 0.000000 0.000000 0.000000 
Drag coefficient: 0.000000 
torque (ref. CG): 0.000000 (roll) 0.000000 (pitch) 0.000000 (yaw) 
----------------------------------------------------- 
step 109, time 0.081750, maxvel 30.000000, total vol 359.697, vol(u>maxvel) 0, cell count 0
bounding box (containing cells with vel>maxvel): xmin inf inf inf, xmax -inf -inf -infm 
bounding box of vehicle: xmin inf inf inf, xmax -inf -inf -infm 
gts area: 0 
yplus max: -inf, yplus min: inf 
position of yplus max: -inf -inf -inf 
yplus prom: -nan 
forces: 0.000000 0.000000 0.000000 
Drag coefficient: 0.000000 
torque (ref. CG): 0.000000 (roll) 0.000000 (pitch) 0.000000 (yaw) 
----------------------------------------------------- 
step 110, time 0.082500, maxvel 30.000000, total vol 359.697, vol(u>maxvel) 0, cell count 0
bounding box (containing cells with vel>maxvel): xmin inf inf inf, xmax -inf -inf -infm 
bounding box of vehicle: xmin inf inf inf, xmax -inf -inf -infm 
gts area: 0 
yplus max: -inf, yplus min: inf 
position of yplus max: -inf -inf -inf 
yplus prom: -nan 
forces: 0.000000 0.000000 0.000000 
Drag coefficient: 0.000000 
torque (ref. CG): 0.000000 (roll) 0.000000 (pitch) 0.000000 (yaw) 
----------------------------------------------------- 
step 111, time 0.083250, maxvel 30.000000, total vol 359.697, vol(u>maxvel) 0, cell count 0
bounding box (containing cells with vel>maxvel): xmin inf inf inf, xmax -inf -inf -infm 
bounding box of vehicle: xmin inf inf inf, xmax -inf -inf -infm 
gts area: 0 
yplus max: -inf, yplus min: inf 
position of yplus max: -inf -inf -inf 
yplus prom: -nan 
forces: 0.000000 0.000000 0.000000 
Drag coefficient: 0.000000 
torque (ref. CG): 0.000000 (roll) 0.000000 (pitch) 0.000000 (yaw) 
----------------------------------------------------- 
step 112, time 0.084000, maxvel 30.000000, total vol 359.697, vol(u>maxvel) 0, cell count 0
bounding box (containing cells with vel>maxvel): xmin inf inf inf, xmax -inf -inf -infm 
bounding box of vehicle: xmin inf inf inf, xmax -inf -inf -infm 
gts area: 0 
yplus max: -inf, yplus min: inf 
position of yplus max: -inf -inf -inf 
yplus prom: -nan 
forces: 0.000000 0.000000 0.000000 
Drag coefficient: 0.000000 
torque (ref. CG): 0.000000 (roll) 0.000000 (pitch) 0.000000 (yaw) 
----------------------------------------------------- 
step 113, time 0.084750, maxvel 30.000000, total vol 359.697, vol(u>maxvel) 0, cell count 0
bounding box (containing cells with vel>maxvel): xmin inf inf inf, xmax -inf -inf -infm 
bounding box of vehicle: xmin inf inf inf, xmax -inf -inf -infm 
gts area: 0 
yplus max: -inf, yplus min: inf 
position of yplus max: -inf -inf -inf 
yplus prom: -nan 
forces: 0.000000 0.000000 0.000000 
Drag coefficient: 0.000000 
torque (ref. CG): 0.000000 (roll) 0.000000 (pitch) 0.000000 (yaw) 
----------------------------------------------------- 
step 114, time 0.085500, maxvel 30.000000, total vol 359.697, vol(u>maxvel) 0, cell count 0
bounding box (containing cells with vel>maxvel): xmin inf inf inf, xmax -inf -inf -infm 
bounding box of vehicle: xmin inf inf inf, xmax -inf -inf -infm 
gts area: 0 
yplus max: -inf, yplus min: inf 
position of yplus max: -inf -inf -inf 
yplus prom: -nan 
forces: 0.000000 0.000000 0.000000 
Drag coefficient: 0.000000 
torque (ref. CG): 0.000000 (roll) 0.000000 (pitch) 0.000000 (yaw) 
----------------------------------------------------- 
step 115, time 0.086250, maxvel 30.000000, total vol 359.697, vol(u>maxvel) 0, cell count 0
bounding box (containing cells with vel>maxvel): xmin inf inf inf, xmax -inf -inf -infm 
bounding box of vehicle: xmin inf inf inf, xmax -inf -inf -infm 
gts area: 0 
yplus max: -inf, yplus min: inf 
position of yplus max: -inf -inf -inf 
yplus prom: -nan 
forces: 0.000000 0.000000 0.000000 
Drag coefficient: 0.000000 
torque (ref. CG): 0.000000 (roll) 0.000000 (pitch) 0.000000 (yaw) 
----------------------------------------------------- 
step 116, time 0.087000, maxvel 30.000000, total vol 359.697, vol(u>maxvel) 0, cell count 0
bounding box (containing cells with vel>maxvel): xmin inf inf inf, xmax -inf -inf -infm 
bounding box of vehicle: xmin inf inf inf, xmax -inf -inf -infm 
gts area: 0 
yplus max: -inf, yplus min: inf 
position of yplus max: -inf -inf -inf 
yplus prom: -nan 
forces: 0.000000 0.000000 0.000000 
Drag coefficient: 0.000000 
torque (ref. CG): 0.000000 (roll) 0.000000 (pitch) 0.000000 (yaw) 
----------------------------------------------------- 
step 117, time 0.087750, maxvel 30.000000, total vol 359.697, vol(u>maxvel) 0, cell count 0
bounding box (containing cells with vel>maxvel): xmin inf inf inf, xmax -inf -inf -infm 
bounding box of vehicle: xmin inf inf inf, xmax -inf -inf -infm 
gts area: 0 
yplus max: -inf, yplus min: inf 
position of yplus max: -inf -inf -inf 
yplus prom: -nan 
forces: 0.000000 0.000000 0.000000 
Drag coefficient: 0.000000 
torque (ref. CG): 0.000000 (roll) 0.000000 (pitch) 0.000000 (yaw) 
----------------------------------------------------- 
step 118, time 0.088500, maxvel 30.000000, total vol 359.697, vol(u>maxvel) 0, cell count 0
bounding box (containing cells with vel>maxvel): xmin inf inf inf, xmax -inf -inf -infm 
bounding box of vehicle: xmin inf inf inf, xmax -inf -inf -infm 
gts area: 0 
yplus max: -inf, yplus min: inf 
position of yplus max: -inf -inf -inf 
yplus prom: -nan 
forces: 0.000000 0.000000 0.000000 
Drag coefficient: 0.000000 
torque (ref. CG): 0.000000 (roll) 0.000000 (pitch) 0.000000 (yaw) 
----------------------------------------------------- 
step 119, time 0.089250, maxvel 30.000000, total vol 359.697, vol(u>maxvel) 0, cell count 0
bounding box (containing cells with vel>maxvel): xmin inf inf inf, xmax -inf -inf -infm 
bounding box of vehicle: xmin inf inf inf, xmax -inf -inf -infm 
gts area: 0 
yplus max: -inf, yplus min: inf 
position of yplus max: -inf -inf -inf 
yplus prom: -nan 
forces: 0.000000 0.000000 0.000000 
Drag coefficient: 0.000000 
torque (ref. CG): 0.000000 (roll) 0.000000 (pitch) 0.000000 (yaw) 
----------------------------------------------------- 
step 120, time 0.090000, maxvel 30.000000, total vol 359.697, vol(u>maxvel) 0, cell count 0
bounding box (containing cells with vel>maxvel): xmin inf inf inf, xmax -inf -inf -infm 
bounding box of vehicle: xmin inf inf inf, xmax -inf -inf -infm 
gts area: 0 
yplus max: -inf, yplus min: inf 
position of yplus max: -inf -inf -inf 
yplus prom: -nan 
forces: 0.000000 0.000000 0.000000 
Drag coefficient: 0.000000 
torque (ref. CG): 0.000000 (roll) 0.000000 (pitch) 0.000000 (yaw) 
----------------------------------------------------- 
step 121, time 0.090750, maxvel 30.000000, total vol 359.697, vol(u>maxvel) 0, cell count 0
bounding box (containing cells with vel>maxvel): xmin inf inf inf, xmax -inf -inf -infm 
bounding box of vehicle: xmin inf inf inf, xmax -inf -inf -infm 
gts area: 0 
yplus max: -inf, yplus min: inf 
position of yplus max: -inf -inf -inf 
yplus prom: -nan 
forces: 0.000000 0.000000 0.000000 
Drag coefficient: 0.000000 
torque (ref. CG): 0.000000 (roll) 0.000000 (pitch) 0.000000 (yaw) 
----------------------------------------------------- 
step 122, time 0.091500, maxvel 30.000000, total vol 359.697, vol(u>maxvel) 0, cell count 0
bounding box (containing cells with vel>maxvel): xmin inf inf inf, xmax -inf -inf -infm 
bounding box of vehicle: xmin inf inf inf, xmax -inf -inf -infm 
gts area: 0 
yplus max: -inf, yplus min: inf 
position of yplus max: -inf -inf -inf 
yplus prom: -nan 
forces: 0.000000 0.000000 0.000000 
Drag coefficient: 0.000000 
torque (ref. CG): 0.000000 (roll) 0.000000 (pitch) 0.000000 (yaw) 
----------------------------------------------------- 
step 123, time 0.092250, maxvel 30.000000, total vol 359.697, vol(u>maxvel) 0, cell count 0
bounding box (containing cells with vel>maxvel): xmin inf inf inf, xmax -inf -inf -infm 
bounding box of vehicle: xmin inf inf inf, xmax -inf -inf -infm 
gts area: 0 
yplus max: -inf, yplus min: inf 
position of yplus max: -inf -inf -inf 
yplus prom: -nan 
forces: 0.000000 0.000000 0.000000 
Drag coefficient: 0.000000 
torque (ref. CG): 0.000000 (roll) 0.000000 (pitch) 0.000000 (yaw) 
----------------------------------------------------- 
step 124, time 0.093000, maxvel 30.000000, total vol 359.697, vol(u>maxvel) 0, cell count 0
bounding box (containing cells with vel>maxvel): xmin inf inf inf, xmax -inf -inf -infm 
bounding box of vehicle: xmin inf inf inf, xmax -inf -inf -infm 
gts area: 0 
yplus max: -inf, yplus min: inf 
position of yplus max: -inf -inf -inf 
yplus prom: -nan 
forces: 0.000000 0.000000 0.000000 
Drag coefficient: 0.000000 
torque (ref. CG): 0.000000 (roll) 0.000000 (pitch) 0.000000 (yaw) 
----------------------------------------------------- 
step 125, time 0.093750, maxvel 30.000000, total vol 359.697, vol(u>maxvel) 0, cell count 0
bounding box (containing cells with vel>maxvel): xmin inf inf inf, xmax -inf -inf -infm 
bounding box of vehicle: xmin inf inf inf, xmax -inf -inf -infm 
gts area: 0 
yplus max: -inf, yplus min: inf 
position of yplus max: -inf -inf -inf 
yplus prom: -nan 
forces: 0.000000 0.000000 0.000000 
Drag coefficient: 0.000000 
torque (ref. CG): 0.000000 (roll) 0.000000 (pitch) 0.000000 (yaw) 
----------------------------------------------------- 
step 126, time 0.094500, maxvel 30.000000, total vol 359.697, vol(u>maxvel) 0, cell count 0
bounding box (containing cells with vel>maxvel): xmin inf inf inf, xmax -inf -inf -infm 
bounding box of vehicle: xmin inf inf inf, xmax -inf -inf -infm 
gts area: 0 
yplus max: -inf, yplus min: inf 
position of yplus max: -inf -inf -inf 
yplus prom: -nan 
forces: 0.000000 0.000000 0.000000 
Drag coefficient: 0.000000 
torque (ref. CG): 0.000000 (roll) 0.000000 (pitch) 0.000000 (yaw) 
----------------------------------------------------- 
step 127, time 0.095250, maxvel 30.000000, total vol 359.697, vol(u>maxvel) 0, cell count 0
bounding box (containing cells with vel>maxvel): xmin inf inf inf, xmax -inf -inf -infm 
bounding box of vehicle: xmin inf inf inf, xmax -inf -inf -infm 
gts area: 0 
yplus max: -inf, yplus min: inf 
position of yplus max: -inf -inf -inf 
yplus prom: -nan 
forces: 0.000000 0.000000 0.000000 
Drag coefficient: 0.000000 
torque (ref. CG): 0.000000 (roll) 0.000000 (pitch) 0.000000 (yaw) 
----------------------------------------------------- 
step 128, time 0.096000, maxvel 30.000000, total vol 359.697, vol(u>maxvel) 0, cell count 0
bounding box (containing cells with vel>maxvel): xmin inf inf inf, xmax -inf -inf -infm 
bounding box of vehicle: xmin inf inf inf, xmax -inf -inf -infm 
gts area: 0 
yplus max: -inf, yplus min: inf 
position of yplus max: -inf -inf -inf 
yplus prom: -nan 
forces: 0.000000 0.000000 0.000000 
Drag coefficient: 0.000000 
torque (ref. CG): 0.000000 (roll) 0.000000 (pitch) 0.000000 (yaw) 
----------------------------------------------------- 
step 129, time 0.096750, maxvel 30.000000, total vol 359.697, vol(u>maxvel) 0, cell count 0
bounding box (containing cells with vel>maxvel): xmin inf inf inf, xmax -inf -inf -infm 
bounding box of vehicle: xmin inf inf inf, xmax -inf -inf -infm 
gts area: 0 
yplus max: -inf, yplus min: inf 
position of yplus max: -inf -inf -inf 
yplus prom: -nan 
forces: 0.000000 0.000000 0.000000 
Drag coefficient: 0.000000 
torque (ref. CG): 0.000000 (roll) 0.000000 (pitch) 0.000000 (yaw) 
----------------------------------------------------- 
step 130, time 0.097500, maxvel 30.000000, total vol 359.697, vol(u>maxvel) 0, cell count 0
bounding box (containing cells with vel>maxvel): xmin inf inf inf, xmax -inf -inf -infm 
bounding box of vehicle: xmin inf inf inf, xmax -inf -inf -infm 
gts area: 0 
yplus max: -inf, yplus min: inf 
position of yplus max: -inf -inf -inf 
yplus prom: -nan 
forces: 0.000000 0.000000 0.000000 
Drag coefficient: 0.000000 
torque (ref. CG): 0.000000 (roll) 0.000000 (pitch) 0.000000 (yaw) 
----------------------------------------------------- 
step 131, time 0.098250, maxvel 30.000000, total vol 359.697, vol(u>maxvel) 0, cell count 0
bounding box (containing cells with vel>maxvel): xmin inf inf inf, xmax -inf -inf -infm 
bounding box of vehicle: xmin inf inf inf, xmax -inf -inf -infm 
gts area: 0 
yplus max: -inf, yplus min: inf 
position of yplus max: -inf -inf -inf 
yplus prom: -nan 
forces: 0.000000 0.000000 0.000000 
Drag coefficient: 0.000000 
torque (ref. CG): 0.000000 (roll) 0.000000 (pitch) 0.000000 (yaw) 
----------------------------------------------------- 
step 132, time 0.099000, maxvel 30.000000, total vol 359.697, vol(u>maxvel) 0, cell count 0
bounding box (containing cells with vel>maxvel): xmin inf inf inf, xmax -inf -inf -infm 
bounding box of vehicle: xmin inf inf inf, xmax -inf -inf -infm 
gts area: 0 
yplus max: -inf, yplus min: inf 
position of yplus max: -inf -inf -inf 
yplus prom: -nan 
forces: 0.000000 0.000000 0.000000 
Drag coefficient: 0.000000 
torque (ref. CG): 0.000000 (roll) 0.000000 (pitch) 0.000000 (yaw) 
----------------------------------------------------- 
step 133, time 0.099750, maxvel 30.000000, total vol 359.697, vol(u>maxvel) 0, cell count 0
bounding box (containing cells with vel>maxvel): xmin inf inf inf, xmax -inf -inf -infm 
bounding box of vehicle: xmin inf inf inf, xmax -inf -inf -infm 
gts area: 0 
yplus max: -inf, yplus min: inf 
position of yplus max: -inf -inf -inf 
yplus prom: -nan 
forces: 0.000000 0.000000 0.000000 
Drag coefficient: 0.000000 
torque (ref. CG): 0.000000 (roll) 0.000000 (pitch) 0.000000 (yaw) 
----------------------------------------------------- 
step 134, time 0.100500, maxvel 30.000000, total vol 359.697, vol(u>maxvel) 0, cell count 0
bounding box (containing cells with vel>maxvel): xmin inf inf inf, xmax -inf -inf -infm 
bounding box of vehicle: xmin inf inf inf, xmax -inf -inf -infm 
gts area: 0 
yplus max: -inf, yplus min: inf 
position of yplus max: -inf -inf -inf 
yplus prom: -nan 
forces: 0.000000 0.000000 0.000000 
Drag coefficient: 0.000000 
torque (ref. CG): 0.000000 (roll) 0.000000 (pitch) 0.000000 (yaw) 
----------------------------------------------------- 
step 135, time 0.101250, maxvel 30.000000, total vol 359.697, vol(u>maxvel) 0, cell count 0
bounding box (containing cells with vel>maxvel): xmin inf inf inf, xmax -inf -inf -infm 
bounding box of vehicle: xmin inf inf inf, xmax -inf -inf -infm 
gts area: 0 
yplus max: -inf, yplus min: inf 
position of yplus max: -inf -inf -inf 
yplus prom: -nan 
forces: 0.000000 0.000000 0.000000 
Drag coefficient: 0.000000 
torque (ref. CG): 0.000000 (roll) 0.000000 (pitch) 0.000000 (yaw) 
----------------------------------------------------- 
step 136, time 0.102000, maxvel 30.000000, total vol 359.697, vol(u>maxvel) 0, cell count 0
bounding box (containing cells with vel>maxvel): xmin inf inf inf, xmax -inf -inf -infm 
bounding box of vehicle: xmin inf inf inf, xmax -inf -inf -infm 
gts area: 0 
yplus max: -inf, yplus min: inf 
position of yplus max: -inf -inf -inf 
yplus prom: -nan 
forces: 0.000000 0.000000 0.000000 
Drag coefficient: 0.000000 
torque (ref. CG): 0.000000 (roll) 0.000000 (pitch) 0.000000 (yaw) 
----------------------------------------------------- 
step 137, time 0.102750, maxvel 30.000000, total vol 359.697, vol(u>maxvel) 0, cell count 0
bounding box (containing cells with vel>maxvel): xmin inf inf inf, xmax -inf -inf -infm 
bounding box of vehicle: xmin inf inf inf, xmax -inf -inf -infm 
gts area: 0 
yplus max: -inf, yplus min: inf 
position of yplus max: -inf -inf -inf 
yplus prom: -nan 
forces: 0.000000 0.000000 0.000000 
Drag coefficient: 0.000000 
torque (ref. CG): 0.000000 (roll) 0.000000 (pitch) 0.000000 (yaw) 
----------------------------------------------------- 
step 138, time 0.103500, maxvel 30.000000, total vol 359.697, vol(u>maxvel) 0, cell count 0
bounding box (containing cells with vel>maxvel): xmin inf inf inf, xmax -inf -inf -infm 
bounding box of vehicle: xmin inf inf inf, xmax -inf -inf -infm 
gts area: 0 
yplus max: -inf, yplus min: inf 
position of yplus max: -inf -inf -inf 
yplus prom: -nan 
forces: 0.000000 0.000000 0.000000 
Drag coefficient: 0.000000 
torque (ref. CG): 0.000000 (roll) 0.000000 (pitch) 0.000000 (yaw) 
----------------------------------------------------- 
step 139, time 0.104250, maxvel 30.000000, total vol 359.697, vol(u>maxvel) 0, cell count 0
bounding box (containing cells with vel>maxvel): xmin inf inf inf, xmax -inf -inf -infm 
bounding box of vehicle: xmin inf inf inf, xmax -inf -inf -infm 
gts area: 0 
yplus max: -inf, yplus min: inf 
position of yplus max: -inf -inf -inf 
yplus prom: -nan 
forces: 0.000000 0.000000 0.000000 
Drag coefficient: 0.000000 
torque (ref. CG): 0.000000 (roll) 0.000000 (pitch) 0.000000 (yaw) 
----------------------------------------------------- 
step 140, time 0.105000, maxvel 30.000000, total vol 359.697, vol(u>maxvel) 0, cell count 0
bounding box (containing cells with vel>maxvel): xmin inf inf inf, xmax -inf -inf -infm 
bounding box of vehicle: xmin inf inf inf, xmax -inf -inf -infm 
gts area: 0 
yplus max: -inf, yplus min: inf 
position of yplus max: -inf -inf -inf 
yplus prom: -nan 
forces: 0.000000 0.000000 0.000000 
Drag coefficient: 0.000000 
torque (ref. CG): 0.000000 (roll) 0.000000 (pitch) 0.000000 (yaw) 
----------------------------------------------------- 
step 141, time 0.105750, maxvel 30.000000, total vol 359.697, vol(u>maxvel) 0, cell count 0
bounding box (containing cells with vel>maxvel): xmin inf inf inf, xmax -inf -inf -infm 
bounding box of vehicle: xmin inf inf inf, xmax -inf -inf -infm 
gts area: 0 
yplus max: -inf, yplus min: inf 
position of yplus max: -inf -inf -inf 
yplus prom: -nan 
forces: 0.000000 0.000000 0.000000 
Drag coefficient: 0.000000 
torque (ref. CG): 0.000000 (roll) 0.000000 (pitch) 0.000000 (yaw) 
----------------------------------------------------- 
step 142, time 0.106500, maxvel 30.000000, total vol 359.697, vol(u>maxvel) 0, cell count 0
bounding box (containing cells with vel>maxvel): xmin inf inf inf, xmax -inf -inf -infm 
bounding box of vehicle: xmin inf inf inf, xmax -inf -inf -infm 
gts area: 0 
yplus max: -inf, yplus min: inf 
position of yplus max: -inf -inf -inf 
yplus prom: -nan 
forces: 0.000000 0.000000 0.000000 
Drag coefficient: 0.000000 
torque (ref. CG): 0.000000 (roll) 0.000000 (pitch) 0.000000 (yaw) 
----------------------------------------------------- 
step 143, time 0.107250, maxvel 30.000000, total vol 359.697, vol(u>maxvel) 0, cell count 0
bounding box (containing cells with vel>maxvel): xmin inf inf inf, xmax -inf -inf -infm 
bounding box of vehicle: xmin inf inf inf, xmax -inf -inf -infm 
gts area: 0 
yplus max: -inf, yplus min: inf 
position of yplus max: -inf -inf -inf 
yplus prom: -nan 
forces: 0.000000 0.000000 0.000000 
Drag coefficient: 0.000000 
torque (ref. CG): 0.000000 (roll) 0.000000 (pitch) 0.000000 (yaw) 
----------------------------------------------------- 
step 144, time 0.108000, maxvel 30.000000, total vol 359.697, vol(u>maxvel) 0, cell count 0
bounding box (containing cells with vel>maxvel): xmin inf inf inf, xmax -inf -inf -infm 
bounding box of vehicle: xmin inf inf inf, xmax -inf -inf -infm 
gts area: 0 
yplus max: -inf, yplus min: inf 
position of yplus max: -inf -inf -inf 
yplus prom: -nan 
forces: 0.000000 0.000000 0.000000 
Drag coefficient: 0.000000 
torque (ref. CG): 0.000000 (roll) 0.000000 (pitch) 0.000000 (yaw) 
----------------------------------------------------- 
step 145, time 0.108750, maxvel 30.000000, total vol 359.697, vol(u>maxvel) 0, cell count 0
bounding box (containing cells with vel>maxvel): xmin inf inf inf, xmax -inf -inf -infm 
bounding box of vehicle: xmin inf inf inf, xmax -inf -inf -infm 
gts area: 0 
yplus max: -inf, yplus min: inf 
position of yplus max: -inf -inf -inf 
yplus prom: -nan 
forces: 0.000000 0.000000 0.000000 
Drag coefficient: 0.000000 
torque (ref. CG): 0.000000 (roll) 0.000000 (pitch) 0.000000 (yaw) 
----------------------------------------------------- 
step 146, time 0.109500, maxvel 30.000000, total vol 359.697, vol(u>maxvel) 0, cell count 0
bounding box (containing cells with vel>maxvel): xmin inf inf inf, xmax -inf -inf -infm 
bounding box of vehicle: xmin inf inf inf, xmax -inf -inf -infm 
gts area: 0 
yplus max: -inf, yplus min: inf 
position of yplus max: -inf -inf -inf 
yplus prom: -nan 
forces: 0.000000 0.000000 0.000000 
Drag coefficient: 0.000000 
torque (ref. CG): 0.000000 (roll) 0.000000 (pitch) 0.000000 (yaw) 
----------------------------------------------------- 
step 147, time 0.110250, maxvel 30.000000, total vol 359.697, vol(u>maxvel) 0, cell count 0
bounding box (containing cells with vel>maxvel): xmin inf inf inf, xmax -inf -inf -infm 
bounding box of vehicle: xmin inf inf inf, xmax -inf -inf -infm 
gts area: 0 
yplus max: -inf, yplus min: inf 
position of yplus max: -inf -inf -inf 
yplus prom: -nan 
forces: 0.000000 0.000000 0.000000 
Drag coefficient: 0.000000 
torque (ref. CG): 0.000000 (roll) 0.000000 (pitch) 0.000000 (yaw) 
----------------------------------------------------- 
step 148, time 0.111000, maxvel 30.000000, total vol 359.697, vol(u>maxvel) 0, cell count 0
[...]
bounding box of vehicle: xmin inf inf inf, xmax -inf -inf -infm 
gts area: 0 
yplus max: -inf, yplus min: inf 
position of yplus max: -inf -inf -inf 
yplus prom: -nan 
forces: 0.000000 0.000000 0.000000 
Drag coefficient: 0.000000 
torque (ref. CG): 0.000000 (roll) 0.000000 (pitch) 0.000000 (yaw) 
----------------------------------------------------- 
step 238, time 0.178500, maxvel 30.000000, total vol 359.697, vol(u>maxvel) 0, cell count 0
bounding box (containing cells with vel>maxvel): xmin inf inf inf, xmax -inf -inf -infm 
bounding box of vehicle: xmin inf inf inf, xmax -inf -inf -infm 
gts area: 0 
yplus max: -inf, yplus min: inf 
position of yplus max: -inf -inf -inf 
yplus prom: -nan 
forces: 0.000000 0.000000 0.000000 
Drag coefficient: 0.000000 
torque (ref. CG): 0.000000 (roll) 0.000000 (pitch) 0.000000 (yaw) 
----------------------------------------------------- 
step 239, time 0.179250, maxvel 30.000000, total vol 359.697, vol(u>maxvel) 0, cell count 0
bounding box (containing cells with vel>maxvel): xmin inf inf inf, xmax -inf -inf -infm 
bounding box of vehicle: xmin inf inf inf, xmax -inf -inf -infm 
gts area: 0 
yplus max: -inf, yplus min: inf 
position of yplus max: -inf -inf -inf 
yplus prom: -nan 
forces: 0.000000 0.000000 0.000000 
Drag coefficient: 0.000000 
torque (ref. CG): 0.000000 (roll) 0.000000 (pitch) 0.000000 (yaw) 
----------------------------------------------------- 
step 240, time 0.180000, maxvel 30.000000, total vol 359.697, vol(u>maxvel) 0, cell count 0
bounding box (containing cells with vel>maxvel): xmin inf inf inf, xmax -inf -inf -infm 
bounding box of vehicle: xmin inf inf inf, xmax -inf -inf -infm 
gts area: 0 
yplus max: -inf, yplus min: inf 
position of yplus max: -inf -inf -inf 
yplus prom: -nan 
forces: 0.000000 0.000000 0.000000 
Drag coefficient: 0.000000 
torque (ref. CG): 0.000000 (roll) 0.000000 (pitch) 0.000000 (yaw) 
----------------------------------------------------- 
step 241, time 0.180750, maxvel 30.000000, total vol 359.697, vol(u>maxvel) 0, cell count 0
bounding box (containing cells with vel>maxvel): xmin inf inf inf, xmax -inf -inf -infm 
bounding box of vehicle: xmin inf inf inf, xmax -inf -inf -infm 
gts area: 0 
yplus max: -inf, yplus min: inf 
position of yplus max: -inf -inf -inf 
yplus prom: -nan 
forces: 0.000000 0.000000 0.000000 
Drag coefficient: 0.000000 
torque (ref. CG): 0.000000 (roll) 0.000000 (pitch) 0.000000 (yaw) 
----------------------------------------------------- 
step 242, time 0.181500, maxvel 30.000000, total vol 359.697, vol(u>maxvel) 0, cell count 0
bounding box (containing cells with vel>maxvel): xmin inf inf inf, xmax -inf -inf -infm 
bounding box of vehicle: xmin inf inf inf, xmax -inf -inf -infm 
gts area: 0 
yplus max: -inf, yplus min: inf 
position of yplus max: -inf -inf -inf 
yplus prom: -nan 
forces: 0.000000 0.000000 0.000000 
Drag coefficient: 0.000000 
torque (ref. CG): 0.000000 (roll) 0.000000 (pitch) 0.000000 (yaw) 
----------------------------------------------------- 
step 243, time 0.182250, maxvel 30.000000, total vol 359.697, vol(u>maxvel) 0, cell count 0
bounding box (containing cells with vel>maxvel): xmin inf inf inf, xmax -inf -inf -infm 
bounding box of vehicle: xmin inf inf inf, xmax -inf -inf -infm 
gts area: 0 
yplus max: -inf, yplus min: inf 
position of yplus max: -inf -inf -inf 
yplus prom: -nan 
forces: 0.000000 0.000000 0.000000 
Drag coefficient: 0.000000 
torque (ref. CG): 0.000000 (roll) 0.000000 (pitch) 0.000000 (yaw) 
----------------------------------------------------- 
step 244, time 0.183000, maxvel 30.000000, total vol 359.697, vol(u>maxvel) 0, cell count 0
bounding box (containing cells with vel>maxvel): xmin inf inf inf, xmax -inf -inf -infm 
bounding box of vehicle: xmin inf inf inf, xmax -inf -inf -infm 
gts area: 0 
yplus max: -inf, yplus min: inf 
position of yplus max: -inf -inf -inf 
yplus prom: -nan 
forces: 0.000000 0.000000 0.000000 
Drag coefficient: 0.000000 
torque (ref. CG): 0.000000 (roll) 0.000000 (pitch) 0.000000 (yaw) 
----------------------------------------------------- 
step 245, time 0.183750, maxvel 30.000000, total vol 359.697, vol(u>maxvel) 0, cell count 0
bounding box (containing cells with vel>maxvel): xmin inf inf inf, xmax -inf -inf -infm 
bounding box of vehicle: xmin inf inf inf, xmax -inf -inf -infm 
gts area: 0 
yplus max: -inf, yplus min: inf 
position of yplus max: -inf -inf -inf 
yplus prom: -nan 
forces: 0.000000 0.000000 0.000000 
Drag coefficient: 0.000000 
torque (ref. CG): 0.000000 (roll) 0.000000 (pitch) 0.000000 (yaw) 
----------------------------------------------------- 
step 246, time 0.184500, maxvel 30.000000, total vol 359.697, vol(u>maxvel) 0, cell count 0
bounding box (containing cells with vel>maxvel): xmin inf inf inf, xmax -inf -inf -infm 
bounding box of vehicle: xmin inf inf inf, xmax -inf -inf -infm 
gts area: 0 
yplus max: -inf, yplus min: inf 
position of yplus max: -inf -inf -inf 
yplus prom: -nan 
forces: 0.000000 0.000000 0.000000 
Drag coefficient: 0.000000 
torque (ref. CG): 0.000000 (roll) 0.000000 (pitch) 0.000000 (yaw) 
----------------------------------------------------- 
step 247, time 0.185250, maxvel 30.000000, total vol 359.697, vol(u>maxvel) 0, cell count 0
bounding box (containing cells with vel>maxvel): xmin inf inf inf, xmax -inf -inf -infm 
bounding box of vehicle: xmin inf inf inf, xmax -inf -inf -infm 
gts area: 0 
yplus max: -inf, yplus min: inf 
position of yplus max: -inf -inf -inf 
yplus prom: -nan 
forces: 0.000000 0.000000 0.000000 
Drag coefficient: 0.000000 
torque (ref. CG): 0.000000 (roll) 0.000000 (pitch) 0.000000 (yaw) 
----------------------------------------------------- 
step 248, time 0.186000, maxvel 30.000000, total vol 359.697, vol(u>maxvel) 0, cell count 0
bounding box (containing cells with vel>maxvel): xmin inf inf inf, xmax -inf -inf -infm 
bounding box of vehicle: xmin inf inf inf, xmax -inf -inf -infm 
gts area: 0 
yplus max: -inf, yplus min: inf 
position of yplus max: -inf -inf -inf 
yplus prom: -nan 
forces: 0.000000 0.000000 0.000000 
Drag coefficient: 0.000000 
torque (ref. CG): 0.000000 (roll) 0.000000 (pitch) 0.000000 (yaw) 
----------------------------------------------------- 
step 249, time 0.186750, maxvel 30.000000, total vol 359.697, vol(u>maxvel) 0, cell count 0
bounding box (containing cells with vel>maxvel): xmin inf inf inf, xmax -inf -inf -infm 
bounding box of vehicle: xmin inf inf inf, xmax -inf -inf -infm 
gts area: 0 
yplus max: -inf, yplus min: inf 
position of yplus max: -inf -inf -inf 
yplus prom: -nan 
forces: 0.000000 0.000000 0.000000 
Drag coefficient: 0.000000 
torque (ref. CG): 0.000000 (roll) 0.000000 (pitch) 0.000000 (yaw) 
----------------------------------------------------- 
step 250, time 0.187500, maxvel 30.000000, total vol 359.697, vol(u>maxvel) 0, cell count 0
bounding box (containing cells with vel>maxvel): xmin inf inf inf, xmax -inf -inf -infm 
bounding box of vehicle: xmin inf inf inf, xmax -inf -inf -infm 
gts area: 0 
yplus max: -inf, yplus min: inf 
position of yplus max: -inf -inf -inf 
yplus prom: -nan 
forces: 0.000000 0.000000 0.000000 
Drag coefficient: 0.000000 
torque (ref. CG): 0.000000 (roll) 0.000000 (pitch) 0.000000 (yaw) 
----------------------------------------------------- 
step 251, time 0.188250, maxvel 30.000000, total vol 359.697, vol(u>maxvel) 0, cell count 0
bounding box (containing cells with vel>maxvel): xmin inf inf inf, xmax -inf -inf -infm 
bounding box of vehicle: xmin inf inf inf, xmax -inf -inf -infm 
gts area: 0 
yplus max: -inf, yplus min: inf 
position of yplus max: -inf -inf -inf 
yplus prom: -nan 
forces: 0.000000 0.000000 0.000000 
Drag coefficient: 0.000000 
torque (ref. CG): 0.000000 (roll) 0.000000 (pitch) 0.000000 (yaw) 
----------------------------------------------------- 
step 252, time 0.189000, maxvel 30.000000, total vol 359.697, vol(u>maxvel) 0, cell count 0
bounding box (containing cells with vel>maxvel): xmin inf inf inf, xmax -inf -inf -infm 
bounding box of vehicle: xmin inf inf inf, xmax -inf -inf -infm 
gts area: 0 
yplus max: -inf, yplus min: inf 
position of yplus max: -inf -inf -inf 
yplus prom: -nan 
forces: 0.000000 0.000000 0.000000 
Drag coefficient: 0.000000 
torque (ref. CG): 0.000000 (roll) 0.000000 (pitch) 0.000000 (yaw) 
----------------------------------------------------- 
step 253, time 0.189750, maxvel 30.000000, total vol 359.697, vol(u>maxvel) 0, cell count 0
bounding box (containing cells with vel>maxvel): xmin inf inf inf, xmax -inf -inf -infm 
bounding box of vehicle: xmin inf inf inf, xmax -inf -inf -infm 
gts area: 0 
yplus max: -inf, yplus min: inf 
position of yplus max: -inf -inf -inf 
yplus prom: -nan 
forces: 0.000000 0.000000 0.000000 
Drag coefficient: 0.000000 
torque (ref. CG): 0.000000 (roll) 0.000000 (pitch) 0.000000 (yaw) 
----------------------------------------------------- 
step 254, time 0.190500, maxvel 30.000000, total vol 359.697, vol(u>maxvel) 0, cell count 0
bounding box (containing cells with vel>maxvel): xmin inf inf inf, xmax -inf -inf -infm 
bounding box of vehicle: xmin inf inf inf, xmax -inf -inf -infm 
gts area: 0 
yplus max: -inf, yplus min: inf 
position of yplus max: -inf -inf -inf 
yplus prom: -nan 
forces: 0.000000 0.000000 0.000000 
Drag coefficient: 0.000000 
torque (ref. CG): 0.000000 (roll) 0.000000 (pitch) 0.000000 (yaw) 
----------------------------------------------------- 
step 255, time 0.191250, maxvel 30.000000, total vol 359.697, vol(u>maxvel) 0, cell count 0
bounding box (containing cells with vel>maxvel): xmin inf inf inf, xmax -inf -inf -infm 
bounding box of vehicle: xmin inf inf inf, xmax -inf -inf -infm 
gts area: 0 
yplus max: -inf, yplus min: inf 
position of yplus max: -inf -inf -inf 
yplus prom: -nan 
forces: 0.000000 0.000000 0.000000 
Drag coefficient: 0.000000 
torque (ref. CG): 0.000000 (roll) 0.000000 (pitch) 0.000000 (yaw) 
----------------------------------------------------- 
step 256, time 0.192000, maxvel 30.000000, total vol 359.697, vol(u>maxvel) 0, cell count 0
bounding box (containing cells with vel>maxvel): xmin inf inf inf, xmax -inf -inf -infm 
bounding box of vehicle: xmin inf inf inf, xmax -inf -inf -infm 
gts area: 0 
yplus max: -inf, yplus min: inf 
position of yplus max: -inf -inf -inf 
yplus prom: -nan 
forces: 0.000000 0.000000 0.000000 
Drag coefficient: 0.000000 
torque (ref. CG): 0.000000 (roll) 0.000000 (pitch) 0.000000 (yaw) 
----------------------------------------------------- 
step 257, time 0.192750, maxvel 30.000000, total vol 359.697, vol(u>maxvel) 0, cell count 0
bounding box (containing cells with vel>maxvel): xmin inf inf inf, xmax -inf -inf -infm 
bounding box of vehicle: xmin inf inf inf, xmax -inf -inf -infm 
gts area: 0 
yplus max: -inf, yplus min: inf 
position of yplus max: -inf -inf -inf 
yplus prom: -nan 
forces: 0.000000 0.000000 0.000000 
Drag coefficient: 0.000000 
torque (ref. CG): 0.000000 (roll) 0.000000 (pitch) 0.000000 (yaw) 
----------------------------------------------------- 
step 258, time 0.193500, maxvel 30.000000, total vol 359.697, vol(u>maxvel) 0, cell count 0
bounding box (containing cells with vel>maxvel): xmin inf inf inf, xmax -inf -inf -infm 
bounding box of vehicle: xmin inf inf inf, xmax -inf -inf -infm 
gts area: 0 
yplus max: -inf, yplus min: inf 
position of yplus max: -inf -inf -inf 
yplus prom: -nan 
forces: 0.000000 0.000000 0.000000 
Drag coefficient: 0.000000 
torque (ref. CG): 0.000000 (roll) 0.000000 (pitch) 0.000000 (yaw) 
----------------------------------------------------- 
step 259, time 0.194250, maxvel 30.000000, total vol 359.697, vol(u>maxvel) 0, cell count 0
bounding box (containing cells with vel>maxvel): xmin inf inf inf, xmax -inf -inf -infm 
bounding box of vehicle: xmin inf inf inf, xmax -inf -inf -infm 
gts area: 0 
yplus max: -inf, yplus min: inf 
position of yplus max: -inf -inf -inf 
yplus prom: -nan 
forces: 0.000000 0.000000 0.000000 
Drag coefficient: 0.000000 
torque (ref. CG): 0.000000 (roll) 0.000000 (pitch) 0.000000 (yaw) 
----------------------------------------------------- 
step 260, time 0.195000, maxvel 30.000000, total vol 359.697, vol(u>maxvel) 0, cell count 0
bounding box (containing cells with vel>maxvel): xmin inf inf inf, xmax -inf -inf -infm 
bounding box of vehicle: xmin inf inf inf, xmax -inf -inf -infm 
gts area: 0 
yplus max: -inf, yplus min: inf 
position of yplus max: -inf -inf -inf 
yplus prom: -nan 
forces: 0.000000 0.000000 0.000000 
Drag coefficient: 0.000000 
torque (ref. CG): 0.000000 (roll) 0.000000 (pitch) 0.000000 (yaw) 
----------------------------------------------------- 
step 261, time 0.195750, maxvel 30.000000, total vol 359.697, vol(u>maxvel) 0, cell count 0
bounding box (containing cells with vel>maxvel): xmin inf inf inf, xmax -inf -inf -infm 
bounding box of vehicle: xmin inf inf inf, xmax -inf -inf -infm 
gts area: 0 
yplus max: -inf, yplus min: inf 
position of yplus max: -inf -inf -inf 
yplus prom: -nan 
forces: 0.000000 0.000000 0.000000 
Drag coefficient: 0.000000 
torque (ref. CG): 0.000000 (roll) 0.000000 (pitch) 0.000000 (yaw) 
----------------------------------------------------- 
step 262, time 0.196500, maxvel 30.000000, total vol 359.697, vol(u>maxvel) 0, cell count 0
bounding box (containing cells with vel>maxvel): xmin inf inf inf, xmax -inf -inf -infm 
bounding box of vehicle: xmin inf inf inf, xmax -inf -inf -infm 
gts area: 0 
yplus max: -inf, yplus min: inf 
position of yplus max: -inf -inf -inf 
yplus prom: -nan 
forces: 0.000000 0.000000 0.000000 
Drag coefficient: 0.000000 
torque (ref. CG): 0.000000 (roll) 0.000000 (pitch) 0.000000 (yaw) 
----------------------------------------------------- 
step 263, time 0.197250, maxvel 30.000000, total vol 359.697, vol(u>maxvel) 0, cell count 0
bounding box (containing cells with vel>maxvel): xmin inf inf inf, xmax -inf -inf -infm 
bounding box of vehicle: xmin inf inf inf, xmax -inf -inf -infm 
gts area: 0 
yplus max: -inf, yplus min: inf 
position of yplus max: -inf -inf -inf 
yplus prom: -nan 
forces: 0.000000 0.000000 0.000000 
Drag coefficient: 0.000000 
torque (ref. CG): 0.000000 (roll) 0.000000 (pitch) 0.000000 (yaw) 
----------------------------------------------------- 
step 264, time 0.198000, maxvel 30.000000, total vol 359.697, vol(u>maxvel) 0, cell count 0
bounding box (containing cells with vel>maxvel): xmin inf inf inf, xmax -inf -inf -infm 
bounding box of vehicle: xmin inf inf inf, xmax -inf -inf -infm 
gts area: 0 
yplus max: -inf, yplus min: inf 
position of yplus max: -inf -inf -inf 
yplus prom: -nan 
forces: 0.000000 0.000000 0.000000 
Drag coefficient: 0.000000 
torque (ref. CG): 0.000000 (roll) 0.000000 (pitch) 0.000000 (yaw) 
----------------------------------------------------- 
step 265, time 0.198750, maxvel 30.000000, total vol 359.697, vol(u>maxvel) 0, cell count 0
bounding box (containing cells with vel>maxvel): xmin inf inf inf, xmax -inf -inf -infm 
bounding box of vehicle: xmin inf inf inf, xmax -inf -inf -infm 
gts area: 0 
yplus max: -inf, yplus min: inf 
position of yplus max: -inf -inf -inf 
yplus prom: -nan 
forces: 0.000000 0.000000 0.000000 
Drag coefficient: 0.000000 
torque (ref. CG): 0.000000 (roll) 0.000000 (pitch) 0.000000 (yaw) 
----------------------------------------------------- 
step 266, time 0.199500, maxvel 30.000000, total vol 359.697, vol(u>maxvel) 0, cell count 0
bounding box (containing cells with vel>maxvel): xmin inf inf inf, xmax -inf -inf -infm 
bounding box of vehicle: xmin inf inf inf, xmax -inf -inf -infm 
gts area: 0 
yplus max: -inf, yplus min: inf 
position of yplus max: -inf -inf -inf 
yplus prom: -nan 
forces: 0.000000 0.000000 0.000000 
Drag coefficient: 0.000000 
torque (ref. CG): 0.000000 (roll) 0.000000 (pitch) 0.000000 (yaw) 
----------------------------------------------------- 
step 267, time 0.200250, maxvel 30.000000, total vol 359.697, vol(u>maxvel) 0, cell count 0
bounding box (containing cells with vel>maxvel): xmin inf inf inf, xmax -inf -inf -infm 
bounding box of vehicle: xmin inf inf inf, xmax -inf -inf -infm 
gts area: 0 
yplus max: -inf, yplus min: inf 
position of yplus max: -inf -inf -inf 
yplus prom: -nan 
forces: 0.000000 0.000000 0.000000 
Drag coefficient: 0.000000 
torque (ref. CG): 0.000000 (roll) 0.000000 (pitch) 0.000000 (yaw) 
----------------------------------------------------- 
step 268, time 0.201000, maxvel 30.000000, total vol 359.697, vol(u>maxvel) 0, cell count 0
bounding box (containing cells with vel>maxvel): xmin inf inf inf, xmax -inf -inf -infm 
bounding box of vehicle: xmin inf inf inf, xmax -inf -inf -infm 
gts area: 0 
yplus max: -inf, yplus min: inf 
position of yplus max: -inf -inf -inf 
yplus prom: -nan 
forces: 0.000000 0.000000 0.000000 
Drag coefficient: 0.000000 
torque (ref. CG): 0.000000 (roll) 0.000000 (pitch) 0.000000 (yaw) 
----------------------------------------------------- 
step 269, time 0.201750, maxvel 30.000000, total vol 359.697, vol(u>maxvel) 0, cell count 0
bounding box (containing cells with vel>maxvel): xmin inf inf inf, xmax -inf -inf -infm 
bounding box of vehicle: xmin inf inf inf, xmax -inf -inf -infm 
gts area: 0 
yplus max: -inf, yplus min: inf 
position of yplus max: -inf -inf -inf 
yplus prom: -nan 
forces: 0.000000 0.000000 0.000000 
Drag coefficient: 0.000000 
torque (ref. CG): 0.000000 (roll) 0.000000 (pitch) 0.000000 (yaw) 
----------------------------------------------------- 
step 270, time 0.202500, maxvel 30.000000, total vol 359.697, vol(u>maxvel) 0, cell count 0
bounding box (containing cells with vel>maxvel): xmin inf inf inf, xmax -inf -inf -infm 
bounding box of vehicle: xmin inf inf inf, xmax -inf -inf -infm 
gts area: 0 
yplus max: -inf, yplus min: inf 
position of yplus max: -inf -inf -inf 
yplus prom: -nan 
forces: 0.000000 0.000000 0.000000 
Drag coefficient: 0.000000 
torque (ref. CG): 0.000000 (roll) 0.000000 (pitch) 0.000000 (yaw) 
----------------------------------------------------- 
step 271, time 0.203250, maxvel 30.000000, total vol 359.697, vol(u>maxvel) 0, cell count 0
bounding box (containing cells with vel>maxvel): xmin inf inf inf, xmax -inf -inf -infm 
bounding box of vehicle: xmin inf inf inf, xmax -inf -inf -infm 
gts area: 0 
yplus max: -inf, yplus min: inf 
position of yplus max: -inf -inf -inf 
yplus prom: -nan 
forces: 0.000000 0.000000 0.000000 
Drag coefficient: 0.000000 
torque (ref. CG): 0.000000 (roll) 0.000000 (pitch) 0.000000 (yaw) 
----------------------------------------------------- 
step 272, time 0.204000, maxvel 30.000000, total vol 359.697, vol(u>maxvel) 0, cell count 0
bounding box (containing cells with vel>maxvel): xmin inf inf inf, xmax -inf -inf -infm 
bounding box of vehicle: xmin inf inf inf, xmax -inf -inf -infm 
gts area: 0 
yplus max: -inf, yplus min: inf 
position of yplus max: -inf -inf -inf 
yplus prom: -nan 
forces: 0.000000 0.000000 0.000000 
Drag coefficient: 0.000000 
torque (ref. CG): 0.000000 (roll) 0.000000 (pitch) 0.000000 (yaw) 
----------------------------------------------------- 
step 273, time 0.204750, maxvel 30.000000, total vol 359.697, vol(u>maxvel) 0, cell count 0
bounding box (containing cells with vel>maxvel): xmin inf inf inf, xmax -inf -inf -infm 
bounding box of vehicle: xmin inf inf inf, xmax -inf -inf -infm 
gts area: 0 
yplus max: -inf, yplus min: inf 
position of yplus max: -inf -inf -inf 
yplus prom: -nan 
forces: 0.000000 0.000000 0.000000 
Drag coefficient: 0.000000 
torque (ref. CG): 0.000000 (roll) 0.000000 (pitch) 0.000000 (yaw) 
----------------------------------------------------- 
srun: Job step aborted: Waiting up to 32 seconds for job step to finish.
srun: got SIGCONT
slurmstepd: error: *** JOB 140521 ON compute-0-29 CANCELLED AT 2022-09-07T02:17:29 ***
srun: forcing job termination
slurmstepd: error: *** STEP 140521.0 ON compute-0-29 CANCELLED AT 2022-09-07T02:17:29 ***
make: *** [run] Terminado
