Start run at jue ago 25 12:59:41 ART 2022
PYTHON_CS_XFLAGS=' -O0 -g3 -ggdb3 -I/usr/include/jsoncpp ' /share/storage/pub/mstorti/saturne-vof/bin/code_saturne  run --param setup.xml

The following have been reloaded with a version change:
  1) llvm/6.0.0 => llvm/3.4.2


The following have been reloaded with a version change:
  1) llvm/3.4.2 => llvm/6.0.0


                      Code_Saturne
                      ************

 Version:   6.1-alpha
 Path:      /share/storage/pub/mstorti/saturne-vof

 Result directory:
   /share/storage/finzeo/GTS_Tunay_2/RESU/20220825-1259


 ****************************************
  Compiling user subroutines and linking
 ****************************************


 ****************************
  Preparing calculation data
 ****************************

 Parallel Code_Saturne on 120 processes.


 ***************************
  Preprocessing calculation
 ***************************


 **********************
  Starting calculation
 **********************

Warning: Process to core binding is enabled and OMP_NUM_THREADS is set to non-zero (1) value
If your program has OpenMP sections, this can cause over-subscription of cores and consequently poor performance
To avoid this, please re-run your application after setting MV2_ENABLE_AFFINITY=0
Use MV2_USE_THREAD_WARNING=0 to suppress this message
step 1, time 0.000500, maxvel 30.000000, total vol 183256, vol(u>maxvel) 7.14392, cell count 722640
bounding box (containing cells with vel>maxvel): xmin -12.29 -1.8456 -0.479314, xmax 0.19571 1.84587 4.03081m 
bounding box of vehicle: xmin -12.2 -1.30048 -6.45439e-18, xmax 6.48827e-18 1.30048 3.6m 
gts area: 163.394 
yplus max: 108.668, yplus min: 0 
position of yplus max: -8.44122 1.29065 3.44607 
yplus prom: 6.76579 
forces: 795697192.286071 1339497.877590 -94213747.533752 
Drag coefficient: 221985.417780 
torque (ref. CG): -1875297.028626 (roll) 539272209.244661 (pitch) -8170937.053299 (yaw) 
----------------------------------------------------- 
step 2, time 0.001000, maxvel 30.000000, total vol 183256, vol(u>maxvel) 7.45916, cell count 842769
bounding box (containing cells with vel>maxvel): xmin -12.2894 -1.84583 -0.485232, xmax 0.196549 1.8461 4.10545m 
bounding box of vehicle: xmin -12.2 -1.30048 -6.45439e-18, xmax 6.48827e-18 1.30048 3.6m 
gts area: 163.394 
yplus max: 110.043, yplus min: 0.17673 
position of yplus max: -12.1837 1.15587 0.211182 
yplus prom: 3.20424 
forces: 1164855.664161 28.562435 -143213.070129 
Drag coefficient: 324.974090 
torque (ref. CG): -39.987408 (roll) 757198.202040 (pitch) -174.230851 (yaw) 
----------------------------------------------------- 
step 3, time 0.001500, maxvel 30.000000, total vol 183256, vol(u>maxvel) 7.44454, cell count 865418
bounding box (containing cells with vel>maxvel): xmin -12.2894 -1.84578 -0.485232, xmax 0.196761 1.84606 4.10545m 
bounding box of vehicle: xmin -12.2 -1.30048 -6.45439e-18, xmax 6.48827e-18 1.30048 3.6m 
gts area: 163.394 
yplus max: 118.923, yplus min: 0.0400184 
position of yplus max: -12.0599 1.282 0.0519362 
yplus prom: 3.21324 
forces: 23658.693039 -6.964510 -3226.449732 
Drag coefficient: 6.600356 
torque (ref. CG): 9.750314 (roll) 13440.826891 (pitch) 42.483510 (yaw) 
----------------------------------------------------- 
step 4, time 0.002000, maxvel 30.000000, total vol 183256, vol(u>maxvel) 7.43292, cell count 898582
bounding box (containing cells with vel>maxvel): xmin -12.2892 -1.84578 -0.489784, xmax 0.269734 1.84606 4.10545m 
bounding box of vehicle: xmin -12.2 -1.30048 -6.45439e-18, xmax 6.48827e-18 1.30048 3.6m 
gts area: 163.394 
yplus max: 121.212, yplus min: 0.0549361 
position of yplus max: -12.0599 1.282 0.0519362 
yplus prom: 3.09075 
forces: 2272.613663 1.890811 -840.935910 
Drag coefficient: 0.634019 
torque (ref. CG): -2.647136 (roll) -1948.049922 (pitch) -11.533949 (yaw) 
----------------------------------------------------- 
step 5, time 0.002500, maxvel 30.000000, total vol 183256, vol(u>maxvel) 7.42671, cell count 917426
bounding box (containing cells with vel>maxvel): xmin -12.2889 -1.84578 -0.489784, xmax 0.269875 1.846 4.10545m 
bounding box of vehicle: xmin -12.2 -1.30048 -6.45439e-18, xmax 6.48827e-18 1.30048 3.6m 
gts area: 163.394 
yplus max: 122.733, yplus min: 0.0647165 
position of yplus max: -12.0599 1.282 0.0519362 
yplus prom: 2.9428 
forces: 2311.844600 0.379047 -900.646453 
Drag coefficient: 0.644964 
torque (ref. CG): -0.530666 (roll) -2257.360921 (pitch) -2.312189 (yaw) 
----------------------------------------------------- 
step 6, time 0.003000, maxvel 30.000000, total vol 183256, vol(u>maxvel) 7.41838, cell count 938689
bounding box (containing cells with vel>maxvel): xmin -12.2691 -1.84573 -0.489784, xmax 0.27024 1.846 4.10539m 
bounding box of vehicle: xmin -12.2 -1.30048 -6.45439e-18, xmax 6.48827e-18 1.30048 3.6m 
gts area: 163.394 
yplus max: 123.863, yplus min: 0.060565 
position of yplus max: -12.0599 1.282 0.0519362 
yplus prom: 2.85717 
forces: 2446.379313 0.462180 -910.314617 
Drag coefficient: 0.682496 
torque (ref. CG): -0.647052 (roll) -2127.988126 (pitch) -2.819296 (yaw) 
----------------------------------------------------- 
step 7, time 0.003500, maxvel 30.000000, total vol 183256, vol(u>maxvel) 7.40215, cell count 956094
bounding box (containing cells with vel>maxvel): xmin -12.2691 -1.84573 -0.489784, xmax 0.270387 1.84594 4.10539m 
bounding box of vehicle: xmin -12.2 -1.30048 -6.45439e-18, xmax 6.48827e-18 1.30048 3.6m 
gts area: 163.394 
yplus max: 124.673, yplus min: 0.0313247 
position of yplus max: -12.0599 1.282 0.0519362 
yplus prom: 2.80614 
forces: 2532.949601 0.464108 -909.195524 
Drag coefficient: 0.706648 
torque (ref. CG): -0.649751 (roll) -1999.963254 (pitch) -2.831056 (yaw) 
----------------------------------------------------- 
step 8, time 0.004000, maxvel 30.000000, total vol 183256, vol(u>maxvel) 7.39028, cell count 972767
bounding box (containing cells with vel>maxvel): xmin -12.2691 -1.84568 -0.489784, xmax 0.270456 1.84594 4.10539m 
bounding box of vehicle: xmin -12.2 -1.30048 -6.45439e-18, xmax 6.48827e-18 1.30048 3.6m 
gts area: 163.394 
yplus max: 125.243, yplus min: 0.0539256 
position of yplus max: -12.0599 1.282 0.0519362 
yplus prom: 2.77716 
forces: 2605.033580 0.455392 -907.300353 
Drag coefficient: 0.726758 
torque (ref. CG): -0.637548 (roll) -1887.485139 (pitch) -2.777888 (yaw) 
----------------------------------------------------- 
step 9, time 0.004500, maxvel 30.000000, total vol 183256, vol(u>maxvel) 7.37292, cell count 985848
bounding box (containing cells with vel>maxvel): xmin -12.269 -1.84568 -0.493285, xmax 0.270486 1.84588 4.03081m 
bounding box of vehicle: xmin -12.2 -1.30048 -6.45439e-18, xmax 6.48827e-18 1.30048 3.6m 
gts area: 163.394 
yplus max: 125.65, yplus min: 0.0502243 
position of yplus max: -12.0599 1.282 0.0519362 
yplus prom: 2.76559 
forces: 2676.576949 0.443861 -905.309746 
Drag coefficient: 0.746718 
torque (ref. CG): -0.621406 (roll) -1775.181725 (pitch) -2.707554 (yaw) 
----------------------------------------------------- 
step 10, time 0.005000, maxvel 30.000000, total vol 183256, vol(u>maxvel) 7.3597, cell count 994548
bounding box (containing cells with vel>maxvel): xmin -12.269 -1.84568 -0.493285, xmax 0.270503 1.84587 4.03081m 
bounding box of vehicle: xmin -12.2 -1.30048 -6.45439e-18, xmax 6.48827e-18 1.30048 3.6m 
gts area: 163.394 
yplus max: 125.951, yplus min: 0.0473468 
position of yplus max: -12.0599 1.282 0.0519362 
yplus prom: 2.76319 
forces: 2741.368845 0.422394 -904.064524 
Drag coefficient: 0.764793 
torque (ref. CG): -0.591351 (roll) -1676.877212 (pitch) -2.576602 (yaw) 
----------------------------------------------------- 
step 11, time 0.005500, maxvel 30.000000, total vol 183256, vol(u>maxvel) 7.34882, cell count 1001382
bounding box (containing cells with vel>maxvel): xmin -12.269 -1.84563 -0.493285, xmax 0.270521 1.84582 4.03081m 
bounding box of vehicle: xmin -12.2 -1.30048 -6.45439e-18, xmax 6.48827e-18 1.30048 3.6m 
gts area: 163.394 
yplus max: 126.184, yplus min: 0.0453362 
position of yplus max: -12.0599 1.282 0.0519362 
yplus prom: 2.7682 
forces: 2799.453463 0.398213 -903.181365 
Drag coefficient: 0.780998 
torque (ref. CG): -0.557498 (roll) -1590.171479 (pitch) -2.429100 (yaw) 
----------------------------------------------------- 
step 12, time 0.006000, maxvel 30.000000, total vol 183256, vol(u>maxvel) 7.34513, cell count 1008235
bounding box (containing cells with vel>maxvel): xmin -12.269 -1.84563 -0.493285, xmax 0.270701 1.84582 4.03081m 
bounding box of vehicle: xmin -12.2 -1.30048 -6.45439e-18, xmax 6.48827e-18 1.30048 3.6m 
gts area: 163.394 
yplus max: 126.373, yplus min: 0.0443257 
position of yplus max: -12.0599 1.282 0.0519362 
yplus prom: 2.77824 
forces: 2853.037141 0.370899 -902.302728 
Drag coefficient: 0.795947 
torque (ref. CG): -0.519258 (roll) -1509.794644 (pitch) -2.262483 (yaw) 
----------------------------------------------------- 
step 13, time 0.006500, maxvel 30.000000, total vol 183256, vol(u>maxvel) 7.33924, cell count 1011500
bounding box (containing cells with vel>maxvel): xmin -12.269 -1.84559 -0.493285, xmax 0.270721 1.84574 4.03081m 
bounding box of vehicle: xmin -12.2 -1.30048 -6.45439e-18, xmax 6.48827e-18 1.30048 3.6m 
gts area: 163.394 
yplus max: 126.53, yplus min: 0.0443088 
position of yplus max: -12.0599 1.282 0.0519362 
yplus prom: 2.79154 
forces: 2901.229266 0.339735 -901.572411 
Drag coefficient: 0.809392 
torque (ref. CG): -0.475629 (roll) -1437.870732 (pitch) -2.072383 (yaw) 
----------------------------------------------------- 
step 14, time 0.007000, maxvel 30.000000, total vol 183256, vol(u>maxvel) 7.3337, cell count 1015163
bounding box (containing cells with vel>maxvel): xmin -12.269 -1.84559 -0.495979, xmax 0.271234 1.84574 4.03081m 
bounding box of vehicle: xmin -12.2 -1.30048 -6.45439e-18, xmax 6.48827e-18 1.30048 3.6m 
gts area: 163.394 
yplus max: 126.663, yplus min: 0.0405683 
position of yplus max: -12.0599 1.282 0.0519362 
yplus prom: 2.80679 
forces: 2943.413485 0.303154 -900.783717 
Drag coefficient: 0.821160 
torque (ref. CG): -0.424416 (roll) -1374.001797 (pitch) -1.849242 (yaw) 
----------------------------------------------------- 
step 15, time 0.007500, maxvel 30.000000, total vol 183256, vol(u>maxvel) 7.32779, cell count 1019905
bounding box (containing cells with vel>maxvel): xmin -12.269 -1.84556 -0.495979, xmax 0.271579 1.84566 4.03081m 
bounding box of vehicle: xmin -12.2 -1.30048 -6.45439e-18, xmax 6.48827e-18 1.30048 3.6m 
gts area: 163.394 
yplus max: 126.778, yplus min: 0.0376534 
position of yplus max: -12.0599 1.282 0.0519362 
yplus prom: 2.82316 
forces: 2981.800828 0.267935 -900.095159 
Drag coefficient: 0.831870 
torque (ref. CG): -0.375109 (roll) -1316.059309 (pitch) -1.634404 (yaw) 
----------------------------------------------------- 
step 16, time 0.008000, maxvel 30.000000, total vol 183256, vol(u>maxvel) 7.33289, cell count 1023463
bounding box (containing cells with vel>maxvel): xmin -12.269 -1.84556 -0.495979, xmax 0.271697 1.84566 4.03081m 
bounding box of vehicle: xmin -12.2 -1.30048 -6.45439e-18, xmax 6.48827e-18 1.30048 3.6m 
gts area: 163.394 
yplus max: 126.876, yplus min: 0.0362351 
position of yplus max: -12.0599 1.282 0.0519362 
yplus prom: 2.84006 
forces: 3014.495729 0.226708 -899.411465 
Drag coefficient: 0.840991 
torque (ref. CG): -0.317391 (roll) -1266.115914 (pitch) -1.382916 (yaw) 
----------------------------------------------------- 
step 17, time 0.008500, maxvel 30.000000, total vol 183256, vol(u>maxvel) 7.32122, cell count 1026440
bounding box (containing cells with vel>maxvel): xmin -12.269 -1.84556 -0.495979, xmax 0.271775 1.84566 4.03081m 
bounding box of vehicle: xmin -12.2 -1.30048 -6.45439e-18, xmax 6.48827e-18 1.30048 3.6m 
gts area: 163.394 
yplus max: 126.962, yplus min: 0.0366206 
position of yplus max: -12.0599 1.282 0.0519362 
yplus prom: 2.85702 
forces: 3041.584313 0.186361 -898.848771 
Drag coefficient: 0.848548 
torque (ref. CG): -0.260905 (roll) -1224.759462 (pitch) -1.136802 (yaw) 
----------------------------------------------------- 
step 18, time 0.009000, maxvel 30.000000, total vol 183256, vol(u>maxvel) 7.3141, cell count 1029278
bounding box (containing cells with vel>maxvel): xmin -12.269 -1.84553 -0.495979, xmax 0.271797 1.84557 4.03081m 
bounding box of vehicle: xmin -12.2 -1.30048 -6.45439e-18, xmax 6.48827e-18 1.30048 3.6m 
gts area: 163.394 
yplus max: 127.036, yplus min: 0.0343807 
position of yplus max: -12.0599 1.282 0.0519362 
yplus prom: 2.87365 
forces: 3063.349285 0.148983 -898.394601 
Drag coefficient: 0.854620 
torque (ref. CG): -0.208577 (roll) -1191.518065 (pitch) -0.908799 (yaw) 
----------------------------------------------------- 
step 19, time 0.009500, maxvel 30.000000, total vol 183256, vol(u>maxvel) 7.29906, cell count 1031882
bounding box (containing cells with vel>maxvel): xmin -12.269 -1.84553 -0.495979, xmax 0.344271 1.84557 4.03081m 
bounding box of vehicle: xmin -12.2 -1.30048 -6.45439e-18, xmax 6.48827e-18 1.30048 3.6m 
gts area: 163.394 
yplus max: 127.101, yplus min: 0.0308769 
position of yplus max: -12.0599 1.282 0.0519362 
yplus prom: 2.88955 
forces: 3081.316549 0.109058 -898.022796 
Drag coefficient: 0.859633 
torque (ref. CG): -0.152682 (roll) -1164.095885 (pitch) -0.665256 (yaw) 
----------------------------------------------------- 
step 20, time 0.010000, maxvel 30.000000, total vol 183256, vol(u>maxvel) 7.28779, cell count 1032840
bounding box (containing cells with vel>maxvel): xmin -12.269 -1.84549 -0.498051, xmax 0.344385 1.84547 4.03081m 
bounding box of vehicle: xmin -12.2 -1.30048 -6.45439e-18, xmax 6.48827e-18 1.30048 3.6m 
gts area: 163.394 
yplus max: 127.158, yplus min: 0.0300981 
position of yplus max: -12.0599 1.282 0.0519362 
yplus prom: 2.90442 
forces: 3096.096001 0.064725 -897.530405 
Drag coefficient: 0.863756 
torque (ref. CG): -0.090615 (roll) -1140.401068 (pitch) -0.394821 (yaw) 
----------------------------------------------------- 
step 21, time 0.010500, maxvel 30.000000, total vol 183256, vol(u>maxvel) 7.27862, cell count 1033791
bounding box (containing cells with vel>maxvel): xmin -12.269 -1.84549 -0.498051, xmax 0.344794 1.84547 4.03081m 
bounding box of vehicle: xmin -12.2 -1.30048 -6.45439e-18, xmax 6.48827e-18 1.30048 3.6m 
gts area: 163.394 
yplus max: 127.521, yplus min: 0.0314892 
position of yplus max: -12.0211 1.28998 2.0049 
yplus prom: 2.91809 
forces: 3108.160851 0.031706 -897.221997 
Drag coefficient: 0.867122 
torque (ref. CG): -0.044388 (roll) -1121.628988 (pitch) -0.193407 (yaw) 
----------------------------------------------------- 
step 22, time 0.011000, maxvel 30.000000, total vol 183256, vol(u>maxvel) 7.27252, cell count 1034042
bounding box (containing cells with vel>maxvel): xmin -12.269 -1.84543 -0.498051, xmax 0.34495 1.84536 4.03081m 
bounding box of vehicle: xmin -12.2 -1.30048 -6.45439e-18, xmax 6.48827e-18 1.30048 3.6m 
gts area: 163.394 
yplus max: 127.901, yplus min: 0.0262284 
position of yplus max: -12.0211 1.28998 2.0049 
yplus prom: 2.93046 
forces: 3117.595493 -0.004137 -896.924368 
Drag coefficient: 0.869754 
torque (ref. CG): 0.005792 (roll) -1106.604953 (pitch) 0.025236 (yaw) 
----------------------------------------------------- 
step 23, time 0.011500, maxvel 30.000000, total vol 183256, vol(u>maxvel) 7.25967, cell count 1036037
bounding box (containing cells with vel>maxvel): xmin -12.269 -1.84534 -0.498051, xmax 0.345059 1.84524 4.03081m 
bounding box of vehicle: xmin -12.2 -1.30048 -6.45439e-18, xmax 6.48827e-18 1.30048 3.6m 
gts area: 163.394 
yplus max: 128.231, yplus min: 0.0251523 
position of yplus max: -12.0211 1.28998 2.0049 
yplus prom: 2.94162 
forces: 3125.324167 -0.039072 -896.792319 
Drag coefficient: 0.871910 
torque (ref. CG): 0.054701 (roll) -1094.979310 (pitch) 0.238341 (yaw) 
----------------------------------------------------- 
step 24, time 0.012000, maxvel 30.000000, total vol 183256, vol(u>maxvel) 7.24956, cell count 1036193
bounding box (containing cells with vel>maxvel): xmin -12.269 -1.84521 -0.498051, xmax 0.345102 1.84512 4.03081m 
bounding box of vehicle: xmin -12.2 -1.30048 -6.45439e-18, xmax 6.48827e-18 1.30048 3.6m 
gts area: 163.394 
yplus max: 128.515, yplus min: 0.0245538 
position of yplus max: -12.0211 1.28998 2.0049 
yplus prom: 2.95158 
forces: 3131.653180 -0.071303 -896.599781 
Drag coefficient: 0.873676 
torque (ref. CG): 0.099824 (roll) -1084.944213 (pitch) 0.434949 (yaw) 
----------------------------------------------------- 
step 25, time 0.012500, maxvel 30.000000, total vol 183256, vol(u>maxvel) 7.25525, cell count 1037557
bounding box (containing cells with vel>maxvel): xmin -12.269 -1.77102 -0.498051, xmax 0.345138 1.7712 4.03081m 
bounding box of vehicle: xmin -12.2 -1.30048 -6.45439e-18, xmax 6.48827e-18 1.30048 3.6m 
gts area: 163.394 
yplus max: 128.758, yplus min: 0.0204964 
position of yplus max: -12.0211 1.28998 2.0049 
yplus prom: 2.96049 
forces: 3136.626879 -0.094886 -896.373104 
Drag coefficient: 0.875063 
torque (ref. CG): 0.132840 (roll) -1076.598304 (pitch) 0.578803 (yaw) 
----------------------------------------------------- 
step 26, time 0.013000, maxvel 30.000000, total vol 183256, vol(u>maxvel) 7.26118, cell count 1037459
bounding box (containing cells with vel>maxvel): xmin -12.269 -1.77102 -0.498051, xmax 0.345165 1.7712 4.03081m 
bounding box of vehicle: xmin -12.2 -1.30048 -6.45439e-18, xmax 6.48827e-18 1.30048 3.6m 
gts area: 163.394 
yplus max: 128.966, yplus min: 0.0229944 
position of yplus max: -12.0211 1.28998 2.0049 
yplus prom: 2.96845 
forces: 3139.738522 -0.117918 -896.162746 
Drag coefficient: 0.875931 
torque (ref. CG): 0.165085 (roll) -1070.958821 (pitch) 0.719299 (yaw) 
----------------------------------------------------- 
step 27, time 0.013500, maxvel 30.000000, total vol 183256, vol(u>maxvel) 7.26313, cell count 1037581
bounding box (containing cells with vel>maxvel): xmin -12.269 -1.77102 -0.499644, xmax 0.345978 1.7712 4.03081m 
bounding box of vehicle: xmin -12.2 -1.30048 -6.45439e-18, xmax 6.48827e-18 1.30048 3.6m 
gts area: 163.394 
yplus max: 129.141, yplus min: 0.0188655 
position of yplus max: -12.0211 1.28998 2.0049 
yplus prom: 2.97559 
forces: 3141.103679 -0.133303 -895.985335 
Drag coefficient: 0.876312 
torque (ref. CG): 0.186624 (roll) -1067.965391 (pitch) 0.813149 (yaw) 
----------------------------------------------------- 
step 28, time 0.014000, maxvel 30.000000, total vol 183256, vol(u>maxvel) 7.26025, cell count 1037650
bounding box (containing cells with vel>maxvel): xmin -12.269 -1.77097 -0.499644, xmax 0.346223 1.7712 4.03081m 
bounding box of vehicle: xmin -12.2 -1.30048 -6.45439e-18, xmax 6.48827e-18 1.30048 3.6m 
gts area: 163.394 
yplus max: 129.289, yplus min: 0.0179176 
position of yplus max: -12.0211 1.28998 2.0049 
yplus prom: 2.982 
forces: 3141.070934 -0.147706 -895.779755 
Drag coefficient: 0.876303 
torque (ref. CG): 0.206788 (roll) -1066.757196 (pitch) 0.901005 (yaw) 
----------------------------------------------------- 
step 29, time 0.014500, maxvel 30.000000, total vol 183256, vol(u>maxvel) 7.25408, cell count 1037770
bounding box (containing cells with vel>maxvel): xmin -12.269 -1.77097 -0.499644, xmax 0.346397 1.7712 4.03081m 
bounding box of vehicle: xmin -12.2 -1.30048 -6.45439e-18, xmax 6.48827e-18 1.30048 3.6m 
gts area: 163.394 
yplus max: 129.412, yplus min: 0.0173161 
position of yplus max: -12.0211 1.28998 2.0049 
yplus prom: 2.98778 
forces: 3139.694093 -0.158454 -895.539131 
Drag coefficient: 0.875919 
torque (ref. CG): 0.221836 (roll) -1067.216967 (pitch) 0.966572 (yaw) 
----------------------------------------------------- 
step 30, time 0.015000, maxvel 30.000000, total vol 183256, vol(u>maxvel) 7.25879, cell count 1037456
bounding box (containing cells with vel>maxvel): xmin -12.269 -1.77097 -0.499644, xmax 0.346439 1.77117 4.03081m 
bounding box of vehicle: xmin -12.2 -1.30048 -6.45439e-18, xmax 6.48827e-18 1.30048 3.6m 
gts area: 163.394 
yplus max: 129.515, yplus min: 0.0157426 
position of yplus max: -12.0211 1.28998 2.0049 
yplus prom: 2.99301 
forces: 3137.994797 -0.170894 -895.117617 
Drag coefficient: 0.875445 
torque (ref. CG): 0.239252 (roll) -1067.024746 (pitch) 1.042454 (yaw) 
----------------------------------------------------- 
step 31, time 0.015500, maxvel 30.000000, total vol 183256, vol(u>maxvel) 7.24954, cell count 1036054
bounding box (containing cells with vel>maxvel): xmin -12.269 -1.77097 -0.499644, xmax 0.346491 1.77117 4.03081m 
bounding box of vehicle: xmin -12.2 -1.30048 -6.45439e-18, xmax 6.48827e-18 1.30048 3.6m 
gts area: 163.394 
yplus max: 129.6, yplus min: 0.0139105 
position of yplus max: -12.0211 1.28998 2.0049 
yplus prom: 2.99768 
forces: 3135.199596 -0.172277 -894.909877 
Drag coefficient: 0.874665 
torque (ref. CG): 0.241188 (roll) -1069.670812 (pitch) 1.050892 (yaw) 
----------------------------------------------------- 
step 32, time 0.016000, maxvel 30.000000, total vol 183256, vol(u>maxvel) 7.24162, cell count 1034803
bounding box (containing cells with vel>maxvel): xmin -12.269 -1.77097 -0.499644, xmax 0.346516 1.77117 4.03081m 
bounding box of vehicle: xmin -12.2 -1.30048 -6.45439e-18, xmax 6.48827e-18 1.30048 3.6m 
gts area: 163.394 
yplus max: 129.671, yplus min: 0.0183052 
position of yplus max: -12.0211 1.28998 2.0049 
yplus prom: 3.00181 
forces: 3131.353671 -0.179953 -894.637928 
Drag coefficient: 0.873592 
torque (ref. CG): 0.251934 (roll) -1073.396220 (pitch) 1.097714 (yaw) 
----------------------------------------------------- 
step 33, time 0.016500, maxvel 30.000000, total vol 183256, vol(u>maxvel) 7.23863, cell count 1033905
bounding box (containing cells with vel>maxvel): xmin -12.269 -1.77097 -0.499644, xmax 0.346544 1.77117 4.03081m 
bounding box of vehicle: xmin -12.2 -1.30048 -6.45439e-18, xmax 6.48827e-18 1.30048 3.6m 
gts area: 163.394 
yplus max: 129.728, yplus min: 0.00573727 
position of yplus max: -12.0211 1.28998 2.0049 
yplus prom: 3.00546 
forces: 3127.783135 -0.182672 -894.238068 
Drag coefficient: 0.872596 
torque (ref. CG): 0.255740 (roll) -1075.955826 (pitch) 1.114297 (yaw) 
----------------------------------------------------- 
step 34, time 0.017000, maxvel 30.000000, total vol 183256, vol(u>maxvel) 7.22597, cell count 1031784
bounding box (containing cells with vel>maxvel): xmin -12.269 -1.77092 -0.499644, xmax 0.346573 1.77114 4.03076m 
bounding box of vehicle: xmin -12.2 -1.30048 -6.45439e-18, xmax 6.48827e-18 1.30048 3.6m 
gts area: 163.394 
yplus max: 129.774, yplus min: 0.0163392 
position of yplus max: -12.0211 1.28998 2.0049 
yplus prom: 3.00869 
forces: 3123.958834 -0.186224 -894.008452 
Drag coefficient: 0.871529 
torque (ref. CG): 0.260714 (roll) -1079.909191 (pitch) 1.135967 (yaw) 
----------------------------------------------------- 
step 35, time 0.017500, maxvel 30.000000, total vol 183256, vol(u>maxvel) 7.21433, cell count 1031174
bounding box (containing cells with vel>maxvel): xmin -12.269 -1.77092 -0.499644, xmax 0.346573 1.77114 4.03076m 
bounding box of vehicle: xmin -12.2 -1.30048 -6.45439e-18, xmax 6.48827e-18 1.30048 3.6m 
gts area: 163.394 
yplus max: 129.812, yplus min: 0.01215 
position of yplus max: -12.0211 1.28998 2.0049 
yplus prom: 3.01158 
forces: 3119.410010 -0.183154 -893.841857 
Drag coefficient: 0.870260 
torque (ref. CG): 0.256416 (roll) -1085.261314 (pitch) 1.117242 (yaw) 
----------------------------------------------------- 
step 36, time 0.018000, maxvel 30.000000, total vol 183256, vol(u>maxvel) 7.20732, cell count 1029358
bounding box (containing cells with vel>maxvel): xmin -12.269 -1.77092 -0.50087, xmax 0.346602 1.77114 4.03076m 
bounding box of vehicle: xmin -12.2 -1.30048 -6.45439e-18, xmax 6.48827e-18 1.30048 3.6m 
gts area: 163.394 
yplus max: 129.842, yplus min: 0.0170641 
position of yplus max: -12.0211 1.28998 2.0049 
yplus prom: 3.01422 
forces: 3114.446986 -0.183306 -893.598900 
Drag coefficient: 0.868876 
torque (ref. CG): 0.256628 (roll) -1090.727512 (pitch) 1.118167 (yaw) 
----------------------------------------------------- 
step 37, time 0.018500, maxvel 30.000000, total vol 183256, vol(u>maxvel) 7.19735, cell count 1027002
bounding box (containing cells with vel>maxvel): xmin -12.269 -1.77092 -0.50087, xmax 0.346602 1.77114 4.03076m 
bounding box of vehicle: xmin -12.2 -1.30048 -6.45439e-18, xmax 6.48827e-18 1.30048 3.6m 
gts area: 163.394 
yplus max: 129.865, yplus min: 0.0177405 
position of yplus max: -12.0211 1.28998 2.0049 
yplus prom: 3.01658 
forces: 3109.262264 -0.180293 -893.383056 
Drag coefficient: 0.867429 
torque (ref. CG): 0.252410 (roll) -1096.669475 (pitch) 1.099785 (yaw) 
----------------------------------------------------- 
step 38, time 0.019000, maxvel 30.000000, total vol 183256, vol(u>maxvel) 7.18209, cell count 1025222
bounding box (containing cells with vel>maxvel): xmin -12.269 -1.77092 -0.50087, xmax 0.419519 1.77114 4.03076m 
bounding box of vehicle: xmin -12.2 -1.30048 -6.45439e-18, xmax 6.48827e-18 1.30048 3.6m 
gts area: 163.394 
yplus max: 129.883, yplus min: 0.0190826 
position of yplus max: -12.0211 1.28998 2.0049 
yplus prom: 3.01871 
forces: 3104.029785 -0.181867 -893.085359 
Drag coefficient: 0.865969 
torque (ref. CG): 0.254614 (roll) -1102.178988 (pitch) 1.109392 (yaw) 
----------------------------------------------------- 
step 39, time 0.019500, maxvel 30.000000, total vol 183256, vol(u>maxvel) 7.17638, cell count 1023703
bounding box (containing cells with vel>maxvel): xmin -12.269 -1.77088 -0.50087, xmax 0.419649 1.77112 4.03076m 
bounding box of vehicle: xmin -12.2 -1.30048 -6.45439e-18, xmax 6.48827e-18 1.30048 3.6m 
gts area: 163.394 
yplus max: 129.897, yplus min: 0.0151632 
position of yplus max: -12.0211 1.28998 2.0049 
yplus prom: 3.02066 
forces: 3098.930142 -0.182899 -892.877988 
Drag coefficient: 0.864547 
torque (ref. CG): 0.256059 (roll) -1108.053527 (pitch) 1.115686 (yaw) 
----------------------------------------------------- 
step 40, time 0.020000, maxvel 30.000000, total vol 183256, vol(u>maxvel) 7.17095, cell count 1021537
bounding box (containing cells with vel>maxvel): xmin -12.269 -1.77088 -0.50087, xmax 0.420465 1.77112 4.03076m 
bounding box of vehicle: xmin -12.2 -1.30048 -6.45439e-18, xmax 6.48827e-18 1.30048 3.6m 
gts area: 163.394 
yplus max: 129.906, yplus min: 0.0146866 
position of yplus max: -12.0211 1.28998 2.0049 
yplus prom: 3.02244 
forces: 3093.810954 -0.180125 -892.645415 
Drag coefficient: 0.863118 
torque (ref. CG): 0.252175 (roll) -1113.801699 (pitch) 1.098761 (yaw) 
----------------------------------------------------- 
step 41, time 0.020500, maxvel 30.000000, total vol 183256, vol(u>maxvel) 7.16127, cell count 1018601
bounding box (containing cells with vel>maxvel): xmin -12.269 -1.77088 -0.50087, xmax 0.420855 1.77112 4.03076m 
bounding box of vehicle: xmin -12.2 -1.30048 -6.45439e-18, xmax 6.48827e-18 1.30048 3.6m 
gts area: 163.394 
yplus max: 129.913, yplus min: 0.0132417 
position of yplus max: -12.0211 1.28998 2.0049 
yplus prom: 3.02406 
forces: 3088.461729 -0.181844 -892.451439 
Drag coefficient: 0.861626 
torque (ref. CG): 0.254581 (roll) -1120.107356 (pitch) 1.109247 (yaw) 
----------------------------------------------------- 
step 42, time 0.021000, maxvel 30.000000, total vol 183256, vol(u>maxvel) 7.14584, cell count 1015960
bounding box (containing cells with vel>maxvel): xmin -12.269 -1.77088 -0.501814, xmax 0.42099 1.77112 4.03076m 
bounding box of vehicle: xmin -12.2 -1.30048 -6.45439e-18, xmax 6.48827e-18 1.30048 3.6m 
gts area: 163.394 
yplus max: 129.917, yplus min: 0.00777164 
position of yplus max: -12.0211 1.28998 2.0049 
yplus prom: 3.02558 
forces: 3082.907143 -0.188803 -892.232182 
Drag coefficient: 0.860076 
torque (ref. CG): 0.264324 (roll) -1126.546312 (pitch) 1.151696 (yaw) 
----------------------------------------------------- 
step 43, time 0.021500, maxvel 30.000000, total vol 183256, vol(u>maxvel) 7.12807, cell count 1012656
bounding box (containing cells with vel>maxvel): xmin -12.269 -1.77083 -0.501814, xmax 0.42105 1.77108 4.03076m 
bounding box of vehicle: xmin -12.2 -1.30048 -6.45439e-18, xmax 6.48827e-18 1.30048 3.6m 
gts area: 163.394 
yplus max: 129.918, yplus min: 0.018543 
position of yplus max: -12.0211 1.28998 2.0049 
yplus prom: 3.02699 
forces: 3077.169048 -0.167902 -892.054300 
Drag coefficient: 0.858476 
torque (ref. CG): 0.235062 (roll) -1133.494562 (pitch) 1.024201 (yaw) 
----------------------------------------------------- 
step 44, time 0.022000, maxvel 30.000000, total vol 183256, vol(u>maxvel) 7.10855, cell count 1010139
bounding box (containing cells with vel>maxvel): xmin -12.269 -1.77083 -0.501814, xmax 0.421102 1.77108 4.02972m 
bounding box of vehicle: xmin -12.2 -1.30048 -6.45439e-18, xmax 6.48827e-18 1.30048 3.6m 
gts area: 163.394 
yplus max: 129.918, yplus min: 0.0211122 
position of yplus max: -12.0211 1.28998 2.0049 
yplus prom: 3.02831 
forces: 3071.247293 -0.171435 -891.777130 
Drag coefficient: 0.856824 
torque (ref. CG): 0.240009 (roll) -1140.094281 (pitch) 1.045756 (yaw) 
----------------------------------------------------- 
step 45, time 0.022500, maxvel 30.000000, total vol 183256, vol(u>maxvel) 7.09467, cell count 1007165
bounding box (containing cells with vel>maxvel): xmin -12.269 -1.77083 -0.501814, xmax 0.421143 1.77108 4.02972m 
bounding box of vehicle: xmin -12.2 -1.30048 -6.45439e-18, xmax 6.48827e-18 1.30048 3.6m 
gts area: 163.394 
yplus max: 129.916, yplus min: 0.0200721 
position of yplus max: -12.0211 1.28998 2.0049 
yplus prom: 3.02953 
forces: 3065.157388 -0.171851 -891.537874 
Drag coefficient: 0.855125 
torque (ref. CG): 0.240592 (roll) -1147.160691 (pitch) 1.048293 (yaw) 
----------------------------------------------------- 
step 46, time 0.023000, maxvel 30.000000, total vol 183256, vol(u>maxvel) 7.08414, cell count 1004565
bounding box (containing cells with vel>maxvel): xmin -12.269 -1.77079 -0.501814, xmax 0.42118 1.77104 4.02972m 
bounding box of vehicle: xmin -12.2 -1.30048 -6.45439e-18, xmax 6.48827e-18 1.30048 3.6m 
gts area: 163.394 
yplus max: 129.914, yplus min: 0.0237413 
position of yplus max: -12.0211 1.28998 2.0049 
yplus prom: 3.03065 
forces: 3058.970124 -0.175743 -891.343812 
Drag coefficient: 0.853398 
torque (ref. CG): 0.246040 (roll) -1154.639081 (pitch) 1.072030 (yaw) 
----------------------------------------------------- 
step 47, time 0.023500, maxvel 30.000000, total vol 183256, vol(u>maxvel) 7.07162, cell count 1001039
bounding box (containing cells with vel>maxvel): xmin -12.269 -1.77079 -0.502539, xmax 0.421218 1.77104 4.02972m 
bounding box of vehicle: xmin -12.2 -1.30048 -6.45439e-18, xmax 6.48827e-18 1.30048 3.6m 
gts area: 163.394 
yplus max: 129.91, yplus min: 0.0269513 
position of yplus max: -12.0211 1.28998 2.0049 
yplus prom: 3.03167 
forces: 3052.411552 -0.168236 -891.129400 
Drag coefficient: 0.851569 
torque (ref. CG): 0.235530 (roll) -1162.513170 (pitch) 1.026239 (yaw) 
----------------------------------------------------- 
step 48, time 0.024000, maxvel 30.000000, total vol 183256, vol(u>maxvel) 7.04524, cell count 997188
bounding box (containing cells with vel>maxvel): xmin -12.269 -1.77079 -0.502539, xmax 0.421257 1.77104 4.02972m 
bounding box of vehicle: xmin -12.2 -1.30048 -6.45439e-18, xmax 6.48827e-18 1.30048 3.6m 
gts area: 163.394 
yplus max: 129.905, yplus min: 0.0309889 
position of yplus max: -12.0211 1.28998 2.0049 
yplus prom: 3.03261 
forces: 3045.600407 -0.167028 -890.824584 
Drag coefficient: 0.849669 
torque (ref. CG): 0.233839 (roll) -1170.189392 (pitch) 1.018871 (yaw) 
----------------------------------------------------- 
step 49, time 0.024500, maxvel 30.000000, total vol 183256, vol(u>maxvel) 7.03472, cell count 993483
bounding box (containing cells with vel>maxvel): xmin -12.269 -1.77077 -0.502539, xmax 0.421257 1.77098 4.02972m 
bounding box of vehicle: xmin -12.2 -1.30048 -6.45439e-18, xmax 6.48827e-18 1.30048 3.6m 
gts area: 163.394 
yplus max: 129.899, yplus min: 0.0336602 
position of yplus max: -12.0211 1.28998 2.0049 
yplus prom: 3.03346 
forces: 3038.700379 -0.166902 -890.550345 
Drag coefficient: 0.847744 
torque (ref. CG): 0.233662 (roll) -1178.176573 (pitch) 1.018100 (yaw) 
----------------------------------------------------- 
step 50, time 0.025000, maxvel 30.000000, total vol 183256, vol(u>maxvel) 7.01287, cell count 989225
bounding box (containing cells with vel>maxvel): xmin -12.269 -1.77077 -0.502539, xmax 0.421294 1.77098 4.02972m 
bounding box of vehicle: xmin -12.2 -1.30048 -6.45439e-18, xmax 6.48827e-18 1.30048 3.6m 
gts area: 163.394 
yplus max: 129.894, yplus min: 0.00854729 
position of yplus max: -12.0211 1.28998 2.0049 
yplus prom: 3.03423 
forces: 3031.723400 -0.164693 -890.297009 
Drag coefficient: 0.845797 
torque (ref. CG): 0.230570 (roll) -1186.398992 (pitch) 1.004626 (yaw) 
----------------------------------------------------- 
step 51, time 0.025500, maxvel 30.000000, total vol 183256, vol(u>maxvel) 6.98981, cell count 985030
bounding box (containing cells with vel>maxvel): xmin -12.269 -1.77077 -0.502539, xmax 0.421294 1.77091 4.02972m 
bounding box of vehicle: xmin -12.2 -1.30048 -6.45439e-18, xmax 6.48827e-18 1.30048 3.6m 
gts area: 163.394 
yplus max: 129.887, yplus min: 0.0327295 
position of yplus max: -12.0211 1.28998 2.0049 
yplus prom: 3.03492 
forces: 3024.814417 -0.166772 -890.044408 
Drag coefficient: 0.843870 
torque (ref. CG): 0.233481 (roll) -1194.530706 (pitch) 1.017309 (yaw) 
----------------------------------------------------- 
step 52, time 0.026000, maxvel 30.000000, total vol 183256, vol(u>maxvel) 6.97197, cell count 980198
bounding box (containing cells with vel>maxvel): xmin -12.269 -1.77077 -0.502539, xmax 0.421294 1.77091 4.02829m 
bounding box of vehicle: xmin -12.2 -1.30048 -6.45439e-18, xmax 6.48827e-18 1.30048 3.6m 
gts area: 163.394 
yplus max: 129.881, yplus min: 0.0313837 
position of yplus max: -12.0211 1.28998 2.0049 
yplus prom: 3.03555 
forces: 3017.629493 -0.157658 -889.769640 
Drag coefficient: 0.841865 
torque (ref. CG): 0.220721 (roll) -1202.913512 (pitch) 0.961711 (yaw) 
----------------------------------------------------- 
step 53, time 0.026500, maxvel 30.000000, total vol 183256, vol(u>maxvel) 6.95676, cell count 975964
bounding box (containing cells with vel>maxvel): xmin -12.269 -1.77077 -0.503097, xmax 0.421329 1.77084 4.02829m 
bounding box of vehicle: xmin -12.2 -1.30048 -6.45439e-18, xmax 6.48827e-18 1.30048 3.6m 
gts area: 163.394 
yplus max: 129.874, yplus min: 0.00852012 
position of yplus max: -12.0211 1.28998 2.0049 
yplus prom: 3.0361 
forces: 3010.466781 -0.157344 -889.460124 
Drag coefficient: 0.839867 
torque (ref. CG): 0.220281 (roll) -1211.053262 (pitch) 0.959797 (yaw) 
----------------------------------------------------- 
step 54, time 0.027000, maxvel 30.000000, total vol 183256, vol(u>maxvel) 6.93807, cell count 971447
bounding box (containing cells with vel>maxvel): xmin -12.269 -1.77077 -0.503097, xmax 0.494131 1.77084 4.02829m 
bounding box of vehicle: xmin -12.2 -1.30048 -6.45439e-18, xmax 6.48827e-18 1.30048 3.6m 
gts area: 163.394 
yplus max: 129.867, yplus min: 0.0301646 
position of yplus max: -12.0211 1.28998 2.0049 
yplus prom: 3.0366 
forces: 3003.313372 -0.154924 -889.183890 
Drag coefficient: 0.837871 
torque (ref. CG): 0.216894 (roll) -1219.383006 (pitch) 0.945037 (yaw) 
----------------------------------------------------- 
step 55, time 0.027500, maxvel 30.000000, total vol 183256, vol(u>maxvel) 6.93324, cell count 966898
bounding box (containing cells with vel>maxvel): xmin -12.269 -1.77077 -0.503097, xmax 0.495412 1.77076 4.02829m 
bounding box of vehicle: xmin -12.2 -1.30048 -6.45439e-18, xmax 6.48827e-18 1.30048 3.6m 
gts area: 163.394 
yplus max: 129.86, yplus min: 0.0309097 
position of yplus max: -12.0211 1.28998 2.0049 
yplus prom: 3.03702 
forces: 2996.503754 -0.159317 -888.992154 
Drag coefficient: 0.835971 
torque (ref. CG): 0.223044 (roll) -1227.746882 (pitch) 0.971836 (yaw) 
----------------------------------------------------- 
step 56, time 0.028000, maxvel 30.000000, total vol 183256, vol(u>maxvel) 6.9119, cell count 962139
bounding box (containing cells with vel>maxvel): xmin -12.269 -1.77075 -0.503097, xmax 0.495561 1.77067 3.95617m 
bounding box of vehicle: xmin -12.2 -1.30048 -6.45439e-18, xmax 6.48827e-18 1.30048 3.6m 
gts area: 163.394 
yplus max: 129.853, yplus min: 0.0191209 
position of yplus max: -12.0211 1.28998 2.0049 
yplus prom: 3.03739 
forces: 2990.043305 -0.158806 -888.793929 
Drag coefficient: 0.834169 
torque (ref. CG): 0.222329 (roll) -1235.582341 (pitch) 0.968719 (yaw) 
----------------------------------------------------- 
step 57, time 0.028500, maxvel 30.000000, total vol 183256, vol(u>maxvel) 6.88897, cell count 957212
bounding box (containing cells with vel>maxvel): xmin -12.269 -1.77075 -0.503097, xmax 0.495715 1.77067 3.95617m 
bounding box of vehicle: xmin -12.2 -1.30048 -6.45439e-18, xmax 6.48827e-18 1.30048 3.6m 
gts area: 163.394 
yplus max: 129.846, yplus min: 0.0141583 
position of yplus max: -12.0211 1.28998 2.0049 
yplus prom: 3.0377 
forces: 2983.590615 -0.156865 -888.636645 
Drag coefficient: 0.832369 
torque (ref. CG): 0.219611 (roll) -1243.656672 (pitch) 0.956877 (yaw) 
----------------------------------------------------- 
step 58, time 0.029000, maxvel 30.000000, total vol 183256, vol(u>maxvel) 6.86351, cell count 951773
bounding box (containing cells with vel>maxvel): xmin -12.269 -1.7707 -0.503097, xmax 0.495783 1.77057 3.95613m 
bounding box of vehicle: xmin -12.2 -1.30048 -6.45439e-18, xmax 6.48827e-18 1.30048 3.6m 
gts area: 163.394 
yplus max: 129.839, yplus min: 0.0139303 
position of yplus max: -12.0211 1.28998 2.0049 
yplus prom: 3.03794 
forces: 2977.133577 -0.149770 -888.530194 
Drag coefficient: 0.830568 
torque (ref. CG): 0.209678 (roll) -1252.047174 (pitch) 0.913597 (yaw) 
----------------------------------------------------- 
step 59, time 0.029500, maxvel 30.000000, total vol 183256, vol(u>maxvel) 6.84923, cell count 947092
bounding box (containing cells with vel>maxvel): xmin -12.269 -1.77047 -0.503097, xmax 0.495843 1.7704 3.95613m 
bounding box of vehicle: xmin -12.2 -1.30048 -6.45439e-18, xmax 6.48827e-18 1.30048 3.6m 
gts area: 163.394 
yplus max: 129.832, yplus min: 0.0178068 
position of yplus max: -12.0211 1.28998 2.0049 
yplus prom: 3.03813 
forces: 2970.550089 -0.147171 -888.358071 
Drag coefficient: 0.828731 
torque (ref. CG): 0.206039 (roll) -1260.214110 (pitch) 0.897743 (yaw) 
----------------------------------------------------- 
step 60, time 0.030000, maxvel 30.000000, total vol 183256, vol(u>maxvel) 6.99899, cell count 941769
bounding box (containing cells with vel>maxvel): xmin -12.269 -1.77036 -0.503097, xmax 116.731 17.1177 3.95613m 
bounding box of vehicle: xmin -12.2 -1.30048 -6.45439e-18, xmax 6.48827e-18 1.30048 3.6m 
gts area: 163.394 
yplus max: 129.825, yplus min: 0.0287502 
position of yplus max: -12.0211 1.28998 2.0049 
yplus prom: 3.03827 
forces: 2963.978042 -0.148503 -888.245395 
Drag coefficient: 0.826897 
torque (ref. CG): 0.207904 (roll) -1268.727650 (pitch) 0.905867 (yaw) 
----------------------------------------------------- 
step 61, time 0.030500, maxvel 30.000000, total vol 183256, vol(u>maxvel) 6.98531, cell count 936983
bounding box (containing cells with vel>maxvel): xmin -12.269 -1.77036 -0.503097, xmax 116.731 17.1177 3.95613m 
bounding box of vehicle: xmin -12.2 -1.30048 -6.45439e-18, xmax 6.48827e-18 1.30048 3.6m 
gts area: 163.394 
yplus max: 129.818, yplus min: 0.0228374 
position of yplus max: -12.0211 1.28998 2.0049 
yplus prom: 3.03835 
forces: 2957.589763 -0.148858 -888.107331 
Drag coefficient: 0.825115 
torque (ref. CG): 0.208401 (roll) -1276.829053 (pitch) 0.908035 (yaw) 
----------------------------------------------------- 
step 62, time 0.031000, maxvel 30.000000, total vol 183256, vol(u>maxvel) 6.97799, cell count 931598
bounding box (containing cells with vel>maxvel): xmin -12.269 -1.77034 -0.503097, xmax 116.731 17.1177 3.95613m 
bounding box of vehicle: xmin -12.2 -1.30048 -6.45439e-18, xmax 6.48827e-18 1.30048 3.6m 
gts area: 163.394 
yplus max: 129.811, yplus min: 0.0194473 
position of yplus max: -12.0211 1.28998 2.0049 
yplus prom: 3.03839 
forces: 2951.287835 -0.146411 -887.989447 
Drag coefficient: 0.823357 
torque (ref. CG): 0.204975 (roll) -1284.932657 (pitch) 0.893107 (yaw) 
----------------------------------------------------- 
step 63, time 0.031500, maxvel 30.000000, total vol 183256, vol(u>maxvel) 7.14799, cell count 926153
bounding box (containing cells with vel>maxvel): xmin -12.269 -1.77028 -0.503097, xmax 116.731 17.1498 3.95613m 
bounding box of vehicle: xmin -12.2 -1.30048 -6.45439e-18, xmax 6.48827e-18 1.30048 3.6m 
gts area: 163.394 
yplus max: 129.804, yplus min: 0.0218616 
position of yplus max: -12.0211 1.28998 2.0049 
yplus prom: 3.03839 
forces: 2945.030914 -0.145041 -887.869436 
Drag coefficient: 0.821611 
torque (ref. CG): 0.203057 (roll) -1292.960278 (pitch) 0.884748 (yaw) 
----------------------------------------------------- 
step 64, time 0.032000, maxvel 30.000000, total vol 183256, vol(u>maxvel) 7.13354, cell count 920969
bounding box (containing cells with vel>maxvel): xmin -12.269 -1.77028 -0.503097, xmax 116.731 17.1498 3.95613m 
bounding box of vehicle: xmin -12.2 -1.30048 -6.45439e-18, xmax 6.48827e-18 1.30048 3.6m 
gts area: 163.394 
yplus max: 129.798, yplus min: 0.0252416 
position of yplus max: -12.0211 1.28998 2.0049 
yplus prom: 3.03834 
forces: 2938.795935 -0.142861 -887.759984 
Drag coefficient: 0.819872 
torque (ref. CG): 0.200006 (roll) -1301.021594 (pitch) 0.871454 (yaw) 
----------------------------------------------------- 
step 65, time 0.032500, maxvel 30.000000, total vol 183256, vol(u>maxvel) 7.29919, cell count 915238
bounding box (containing cells with vel>maxvel): xmin -12.269 -1.77028 -0.503097, xmax 116.739 17.1498 3.95613m 
bounding box of vehicle: xmin -12.2 -1.30048 -6.45439e-18, xmax 6.48827e-18 1.30048 3.6m 
gts area: 163.394 
yplus max: 129.792, yplus min: 0.026827 
position of yplus max: -12.0211 1.28998 2.0049 
yplus prom: 3.03827 
forces: 2932.682941 -0.147575 -887.642543 
Drag coefficient: 0.818167 
torque (ref. CG): 0.206605 (roll) -1308.863395 (pitch) 0.900209 (yaw) 
----------------------------------------------------- 
step 66, time 0.033000, maxvel 30.000000, total vol 183256, vol(u>maxvel) 7.71675, cell count 909937
bounding box (containing cells with vel>maxvel): xmin -12.269 -1.77028 -0.503097, xmax 116.739 17.1782 3.95613m 
bounding box of vehicle: xmin -12.2 -1.30048 -6.45439e-18, xmax 6.48827e-18 1.30048 3.6m 
gts area: 163.394 
yplus max: 129.785, yplus min: 0.0264861 
position of yplus max: -12.0211 1.28998 2.0049 
yplus prom: 3.03815 
forces: 2926.896630 -0.153576 -887.512704 
Drag coefficient: 0.816552 
torque (ref. CG): 0.215006 (roll) -1316.172214 (pitch) 0.936811 (yaw) 
----------------------------------------------------- 
step 67, time 0.033500, maxvel 30.000000, total vol 183256, vol(u>maxvel) 7.95771, cell count 904239
bounding box (containing cells with vel>maxvel): xmin -12.269 -1.77028 -0.503097, xmax 116.739 17.1782 3.95613m 
bounding box of vehicle: xmin -12.2 -1.30048 -6.45439e-18, xmax 6.48827e-18 1.30048 3.6m 
gts area: 163.394 
yplus max: 129.779, yplus min: 0.0261644 
position of yplus max: -12.0211 1.28998 2.0049 
yplus prom: 3.03801 
forces: 2921.168325 -0.148332 -887.386741 
Drag coefficient: 0.814954 
torque (ref. CG): 0.207665 (roll) -1323.423468 (pitch) 0.904826 (yaw) 
----------------------------------------------------- 
step 68, time 0.034000, maxvel 30.000000, total vol 183256, vol(u>maxvel) 8.12892, cell count 898581
bounding box (containing cells with vel>maxvel): xmin -12.269 -1.77028 -0.503097, xmax 116.739 17.1782 3.95613m 
bounding box of vehicle: xmin -12.2 -1.30048 -6.45439e-18, xmax 6.48827e-18 1.30048 3.6m 
gts area: 163.394 
yplus max: 129.773, yplus min: 0.0258633 
position of yplus max: -12.0211 1.28998 2.0049 
yplus prom: 3.03783 
forces: 2915.439555 -0.148448 -887.186346 
Drag coefficient: 0.813356 
torque (ref. CG): 0.207827 (roll) -1330.221332 (pitch) 0.905534 (yaw) 
----------------------------------------------------- 
step 69, time 0.034500, maxvel 30.000000, total vol 183256, vol(u>maxvel) 8.35325, cell count 893730
bounding box (containing cells with vel>maxvel): xmin -12.269 -1.77028 -0.503097, xmax 116.739 17.1797 3.95613m 
bounding box of vehicle: xmin -12.2 -1.30048 -6.45439e-18, xmax 6.48827e-18 1.30048 3.6m 
gts area: 163.394 
yplus max: 129.768, yplus min: 0.0255856 
position of yplus max: -12.0211 1.28998 2.0049 
yplus prom: 3.03761 
forces: 2909.691895 -0.147390 -886.980803 
Drag coefficient: 0.811752 
torque (ref. CG): 0.206346 (roll) -1337.014248 (pitch) 0.899078 (yaw) 
----------------------------------------------------- 
step 70, time 0.035000, maxvel 30.000000, total vol 183256, vol(u>maxvel) 8.54102, cell count 888222
bounding box (containing cells with vel>maxvel): xmin -12.269 -1.77028 -0.503097, xmax 116.74 17.1797 3.95511m 
bounding box of vehicle: xmin -12.2 -1.30048 -6.45439e-18, xmax 6.48827e-18 1.30048 3.6m 
gts area: 163.394 
yplus max: 129.762, yplus min: 0.0253328 
position of yplus max: -12.0211 1.28998 2.0049 
yplus prom: 3.03735 
forces: 2903.953575 -0.147483 -886.771406 
Drag coefficient: 0.810152 
torque (ref. CG): 0.206476 (roll) -1343.770569 (pitch) 0.899643 (yaw) 
----------------------------------------------------- 
step 71, time 0.035500, maxvel 30.000000, total vol 183256, vol(u>maxvel) 8.73773, cell count 883441
bounding box (containing cells with vel>maxvel): xmin -12.269 -1.77018 -0.503097, xmax 116.74 17.6759 3.95511m 
bounding box of vehicle: xmin -12.2 -1.30048 -6.45439e-18, xmax 6.48827e-18 1.30048 3.6m 
gts area: 163.394 
yplus max: 129.757, yplus min: 0.0251075 
position of yplus max: -12.0211 1.28998 2.0049 
yplus prom: 3.03705 
forces: 2898.252840 -0.147064 -886.582619 
Drag coefficient: 0.808561 
torque (ref. CG): 0.205889 (roll) -1350.599999 (pitch) 0.897089 (yaw) 
----------------------------------------------------- 
step 72, time 0.036000, maxvel 30.000000, total vol 183256, vol(u>maxvel) 8.92463, cell count 877934
bounding box (containing cells with vel>maxvel): xmin -12.269 -1.77018 -0.503097, xmax 116.74 17.676 3.95511m 
bounding box of vehicle: xmin -12.2 -1.30048 -6.45439e-18, xmax 6.48827e-18 1.30048 3.6m 
gts area: 163.394 
yplus max: 129.751, yplus min: 0.0249108 
position of yplus max: -12.0211 1.28998 2.0049 
yplus prom: 3.03672 
forces: 2892.613214 -0.149547 -886.375680 
Drag coefficient: 0.806988 
torque (ref. CG): 0.209365 (roll) -1357.233146 (pitch) 0.912235 (yaw) 
----------------------------------------------------- 
step 73, time 0.036500, maxvel 30.000000, total vol 183256, vol(u>maxvel) 9.20493, cell count 872621
bounding box (containing cells with vel>maxvel): xmin -12.269 -1.77018 -0.503097, xmax 116.74 17.6761 3.95511m 
bounding box of vehicle: xmin -12.2 -1.30048 -6.45439e-18, xmax 6.48827e-18 1.30048 3.6m 
gts area: 163.394 
yplus max: 129.746, yplus min: 0.0247472 
position of yplus max: -12.0211 1.28998 2.0049 
yplus prom: 3.03635 
forces: 2887.112790 -0.161035 -886.185365 
Drag coefficient: 0.805453 
torque (ref. CG): 0.225449 (roll) -1363.772822 (pitch) 0.982312 (yaw) 
----------------------------------------------------- 
step 74, time 0.037000, maxvel 30.000000, total vol 183256, vol(u>maxvel) 9.37538, cell count 867090
bounding box (containing cells with vel>maxvel): xmin -12.269 -1.77018 -0.503097, xmax 116.74 17.6761 3.95511m 
bounding box of vehicle: xmin -12.2 -1.30048 -6.45439e-18, xmax 6.48827e-18 1.30048 3.6m 
gts area: 163.394 
yplus max: 129.741, yplus min: 0.024613 
position of yplus max: -12.0211 1.28998 2.0049 
yplus prom: 3.03595 
forces: 2881.700621 -0.154629 -885.972909 
Drag coefficient: 0.803943 
torque (ref. CG): 0.216480 (roll) -1370.053876 (pitch) 0.943236 (yaw) 
----------------------------------------------------- 
step 75, time 0.037500, maxvel 30.000000, total vol 183256, vol(u>maxvel) 9.3666, cell count 862056
bounding box (containing cells with vel>maxvel): xmin -12.269 -1.77018 -0.503097, xmax 116.74 17.6763 3.95511m 
bounding box of vehicle: xmin -12.2 -1.30048 -6.45439e-18, xmax 6.48827e-18 1.30048 3.6m 
gts area: 163.394 
yplus max: 129.736, yplus min: 0.0245146 
position of yplus max: -12.0211 1.28998 2.0049 
yplus prom: 3.03553 
forces: 2876.335121 -0.155401 -885.717412 
Drag coefficient: 0.802447 
torque (ref. CG): 0.217561 (roll) -1376.007045 (pitch) 0.947945 (yaw) 
----------------------------------------------------- 
step 76, time 0.038000, maxvel 30.000000, total vol 183256, vol(u>maxvel) 9.53372, cell count 857232
bounding box (containing cells with vel>maxvel): xmin -12.269 -1.77018 -0.503097, xmax 116.741 17.6763 3.95511m 
bounding box of vehicle: xmin -12.2 -1.30048 -6.45439e-18, xmax 6.48827e-18 1.30048 3.6m 
gts area: 163.394 
yplus max: 129.732, yplus min: 0.024451 
position of yplus max: -12.0211 1.28998 2.0049 
yplus prom: 3.03508 
forces: 2871.010264 -0.149681 -885.453042 
Drag coefficient: 0.800961 
torque (ref. CG): 0.209554 (roll) -1381.849185 (pitch) 0.913056 (yaw) 
----------------------------------------------------- 
step 77, time 0.038500, maxvel 30.000000, total vol 183256, vol(u>maxvel) 9.75669, cell count 852007
bounding box (containing cells with vel>maxvel): xmin -12.269 -1.77018 -0.503097, xmax 116.741 17.6763 3.9551m 
bounding box of vehicle: xmin -12.2 -1.30048 -6.45439e-18, xmax 6.48827e-18 1.30048 3.6m 
gts area: 163.394 
yplus max: 129.727, yplus min: 0.0244217 
position of yplus max: -12.0211 1.28998 2.0049 
yplus prom: 3.03462 
forces: 2865.696072 -0.155100 -885.116986 
Drag coefficient: 0.799478 
torque (ref. CG): 0.217140 (roll) -1387.239111 (pitch) 0.946109 (yaw) 
----------------------------------------------------- 
step 78, time 0.039000, maxvel 30.000000, total vol 183256, vol(u>maxvel) 9.73574, cell count 846895
bounding box (containing cells with vel>maxvel): xmin -12.269 -1.77018 -0.503097, xmax 116.741 17.6763 3.9551m 
bounding box of vehicle: xmin -12.2 -1.30048 -6.45439e-18, xmax 6.48827e-18 1.30048 3.6m 
gts area: 163.394 
yplus max: 129.723, yplus min: 0.0244295 
position of yplus max: -12.0211 1.28998 2.0049 
yplus prom: 3.03413 
forces: 2860.391278 -0.157073 -884.795759 
Drag coefficient: 0.797998 
torque (ref. CG): 0.219902 (roll) -1392.706342 (pitch) 0.958145 (yaw) 
----------------------------------------------------- 
step 79, time 0.039500, maxvel 30.000000, total vol 183256, vol(u>maxvel) 9.92439, cell count 841876
bounding box (containing cells with vel>maxvel): xmin -12.269 -1.77018 -0.503097, xmax 116.741 17.6763 3.9551m 
bounding box of vehicle: xmin -12.2 -1.30048 -6.45439e-18, xmax 6.48827e-18 1.30048 3.6m 
gts area: 163.394 
yplus max: 129.718, yplus min: 0.0244727 
position of yplus max: -12.0211 1.28998 2.0049 
yplus prom: 3.03363 
forces: 2855.101366 -0.160211 -884.501414 
Drag coefficient: 0.796523 
torque (ref. CG): 0.224296 (roll) -1398.316713 (pitch) 0.977288 (yaw) 
----------------------------------------------------- 
step 80, time 0.040000, maxvel 30.000000, total vol 183256, vol(u>maxvel) 9.90024, cell count 836694
bounding box (containing cells with vel>maxvel): xmin -12.269 -1.77007 -0.503097, xmax 116.741 17.6763 3.9551m 
bounding box of vehicle: xmin -12.2 -1.30048 -6.45439e-18, xmax 6.48827e-18 1.30048 3.6m 
gts area: 163.394 
yplus max: 129.714, yplus min: 0.0245349 
position of yplus max: -12.0211 1.28998 2.0049 
yplus prom: 3.03311 
forces: 2849.848335 -0.155725 -884.170499 
Drag coefficient: 0.795057 
torque (ref. CG): 0.218015 (roll) -1403.652376 (pitch) 0.949922 (yaw) 
----------------------------------------------------- 
step 81, time 0.040500, maxvel 30.000000, total vol 183256, vol(u>maxvel) 10.1627, cell count 831852
bounding box (containing cells with vel>maxvel): xmin -12.269 -1.77007 -0.503097, xmax 116.741 17.6766 3.9551m 
bounding box of vehicle: xmin -12.2 -1.30048 -6.45439e-18, xmax 6.48827e-18 1.30048 3.6m 
gts area: 163.394 
yplus max: 129.71, yplus min: 0.0246212 
position of yplus max: -12.0211 1.28998 2.0049 
yplus prom: 3.03256 
forces: 2844.608308 -0.173739 -883.920763 
Drag coefficient: 0.793595 
torque (ref. CG): 0.243234 (roll) -1409.465026 (pitch) 1.059807 (yaw) 
----------------------------------------------------- 
step 82, time 0.041000, maxvel 30.000000, total vol 183256, vol(u>maxvel) 10.3984, cell count 826663
bounding box (containing cells with vel>maxvel): xmin -12.269 -1.77007 -0.503097, xmax 116.741 17.6766 4.05528m 
bounding box of vehicle: xmin -12.2 -1.30048 -6.45439e-18, xmax 6.48827e-18 1.30048 3.6m 
gts area: 163.394 
yplus max: 129.706, yplus min: 0.0247315 
position of yplus max: -12.0211 1.28998 2.0049 
yplus prom: 3.032 
forces: 2839.414758 -0.159045 -883.520765 
Drag coefficient: 0.792146 
torque (ref. CG): 0.222663 (roll) -1414.296003 (pitch) 0.970173 (yaw) 
----------------------------------------------------- 
step 83, time 0.041500, maxvel 30.000000, total vol 183256, vol(u>maxvel) 10.5877, cell count 821786
bounding box (containing cells with vel>maxvel): xmin -12.269 -1.77007 -0.503097, xmax 116.741 17.6769 4.05528m 
bounding box of vehicle: xmin -12.2 -1.30048 -6.45439e-18, xmax 6.48827e-18 1.30048 3.6m 
gts area: 163.394 
yplus max: 129.702, yplus min: 0.0170203 
position of yplus max: -12.0211 1.28998 2.0049 
yplus prom: 3.03141 
forces: 2834.298622 -0.158789 -882.968980 
Drag coefficient: 0.790719 
torque (ref. CG): 0.222304 (roll) -1418.092709 (pitch) 0.968612 (yaw) 
----------------------------------------------------- 
step 84, time 0.042000, maxvel 30.000000, total vol 183256, vol(u>maxvel) 10.7991, cell count 817112
bounding box (containing cells with vel>maxvel): xmin -12.269 -1.77007 -0.503097, xmax 116.741 17.6769 4.05528m 
bounding box of vehicle: xmin -12.2 -1.30048 -6.45439e-18, xmax 6.48827e-18 1.30048 3.6m 
gts area: 163.394 
yplus max: 129.698, yplus min: 0.0250685 
position of yplus max: -12.0211 1.28998 2.0049 
yplus prom: 3.03081 
forces: 2829.187822 -0.161546 -883.056097 
Drag coefficient: 0.789293 
torque (ref. CG): 0.226164 (roll) -1425.779239 (pitch) 0.985430 (yaw) 
----------------------------------------------------- 
step 85, time 0.042500, maxvel 30.000000, total vol 183256, vol(u>maxvel) 10.925, cell count 812782
bounding box (containing cells with vel>maxvel): xmin -12.269 -1.77007 -0.503097, xmax 116.741 17.6769 4.05608m 
bounding box of vehicle: xmin -12.2 -1.30048 -6.45439e-18, xmax 6.48827e-18 1.30048 3.6m 
gts area: 163.394 
yplus max: 129.694, yplus min: 0.0252478 
position of yplus max: -12.0211 1.28998 2.0049 
yplus prom: 3.03018 
forces: 2824.129284 -0.158017 -882.522569 
Drag coefficient: 0.787882 
torque (ref. CG): 0.221224 (roll) -1429.606671 (pitch) 0.963904 (yaw) 
----------------------------------------------------- 
step 86, time 0.043000, maxvel 30.000000, total vol 183256, vol(u>maxvel) 11.1679, cell count 808348
bounding box (containing cells with vel>maxvel): xmin -12.269 -1.77007 -0.503097, xmax 116.741 17.6774 4.05608m 
bounding box of vehicle: xmin -12.2 -1.30048 -6.45439e-18, xmax 6.48827e-18 1.30048 3.6m 
gts area: 163.394 
yplus max: 129.691, yplus min: 0.0254814 
position of yplus max: -12.0211 1.28998 2.0049 
yplus prom: 3.02954 
forces: 2819.049352 -0.157092 -882.225449 
Drag coefficient: 0.786465 
torque (ref. CG): 0.219929 (roll) -1434.906148 (pitch) 0.958262 (yaw) 
----------------------------------------------------- 
step 87, time 0.043500, maxvel 30.000000, total vol 183256, vol(u>maxvel) 11.3519, cell count 804686
bounding box (containing cells with vel>maxvel): xmin -12.269 -1.77007 -0.503097, xmax 116.741 17.6769 4.64061m 
bounding box of vehicle: xmin -12.2 -1.30048 -6.45439e-18, xmax 6.48827e-18 1.30048 3.6m 
gts area: 163.394 
yplus max: 129.687, yplus min: 0.0257289 
position of yplus max: -12.0211 1.28998 2.0049 
yplus prom: 3.02888 
forces: 2813.948290 -0.160233 -881.869239 
Drag coefficient: 0.785042 
torque (ref. CG): 0.224326 (roll) -1439.874750 (pitch) 0.977421 (yaw) 
----------------------------------------------------- 
step 88, time 0.044000, maxvel 30.000000, total vol 183256, vol(u>maxvel) 11.5224, cell count 801170
bounding box (containing cells with vel>maxvel): xmin -12.269 -1.76992 -0.503097, xmax 116.741 17.6769 4.64061m 
bounding box of vehicle: xmin -12.2 -1.30048 -6.45439e-18, xmax 6.48827e-18 1.30048 3.6m 
gts area: 163.394 
yplus max: 129.684, yplus min: 0.0259987 
position of yplus max: -12.0211 1.28998 2.0049 
yplus prom: 3.0282 
forces: 2808.876335 -0.159181 -881.524052 
Drag coefficient: 0.783627 
torque (ref. CG): 0.222853 (roll) -1444.869846 (pitch) 0.971002 (yaw) 
----------------------------------------------------- 
step 89, time 0.044500, maxvel 30.000000, total vol 183256, vol(u>maxvel) 11.7375, cell count 797577
bounding box (containing cells with vel>maxvel): xmin -12.269 -1.76992 -0.503097, xmax 116.741 17.6769 4.64061m 
bounding box of vehicle: xmin -12.2 -1.30048 -6.45439e-18, xmax 6.48827e-18 1.30048 3.6m 
gts area: 163.394 
yplus max: 129.68, yplus min: 0.0262865 
position of yplus max: -12.0211 1.28998 2.0049 
yplus prom: 3.0275 
forces: 2803.822038 -0.158807 -881.165966 
Drag coefficient: 0.782217 
torque (ref. CG): 0.222330 (roll) -1449.761540 (pitch) 0.968725 (yaw) 
----------------------------------------------------- 
step 90, time 0.045000, maxvel 30.000000, total vol 183256, vol(u>maxvel) 11.7536, cell count 794138
bounding box (containing cells with vel>maxvel): xmin -12.269 -1.76992 -0.503097, xmax 116.741 17.6769 4.64061m 
bounding box of vehicle: xmin -12.2 -1.30048 -6.45439e-18, xmax 6.48827e-18 1.30048 3.6m 
gts area: 163.394 
yplus max: 129.677, yplus min: 0.0265899 
position of yplus max: -12.0211 1.28998 2.0049 
yplus prom: 3.02679 
forces: 2798.762290 -0.157348 -880.792684 
Drag coefficient: 0.780805 
torque (ref. CG): 0.220288 (roll) -1454.568167 (pitch) 0.959826 (yaw) 
----------------------------------------------------- 
step 91, time 0.045500, maxvel 30.000000, total vol 183256, vol(u>maxvel) 11.8958, cell count 790791
bounding box (containing cells with vel>maxvel): xmin -12.269 -1.76992 -0.503097, xmax 116.741 17.6769 4.64099m 
bounding box of vehicle: xmin -12.2 -1.30048 -6.45439e-18, xmax 6.48827e-18 1.30048 3.6m 
gts area: 163.394 
yplus max: 129.674, yplus min: 0.0269105 
position of yplus max: -12.0211 1.28998 2.0049 
yplus prom: 3.02606 
forces: 2793.667100 -0.167026 -880.469054 
Drag coefficient: 0.779384 
torque (ref. CG): 0.233836 (roll) -1459.727292 (pitch) 1.018857 (yaw) 
----------------------------------------------------- 
step 92, time 0.046000, maxvel 30.000000, total vol 183256, vol(u>maxvel) 12.3446, cell count 787488
bounding box (containing cells with vel>maxvel): xmin -12.269 -16.5387 -0.503097, xmax 116.741 17.6774 30.9745m 
bounding box of vehicle: xmin -12.2 -1.30048 -6.45439e-18, xmax 6.48827e-18 1.30048 3.6m 
gts area: 163.394 
yplus max: 129.671, yplus min: 0.0272279 
position of yplus max: -12.0211 1.28998 2.0049 
yplus prom: 3.02532 
forces: 2788.604661 -0.155585 -879.760589 
Drag coefficient: 0.777971 
torque (ref. CG): 0.217818 (roll) -1462.493066 (pitch) 0.949066 (yaw) 
----------------------------------------------------- 
step 93, time 0.046500, maxvel 30.000000, total vol 183256, vol(u>maxvel) 12.9926, cell count 783925
bounding box (containing cells with vel>maxvel): xmin -12.269 -17.18 -0.503097, xmax 116.741 17.6774 30.9745m 
bounding box of vehicle: xmin -12.2 -1.30048 -6.45439e-18, xmax 6.48827e-18 1.30048 3.6m 
gts area: 163.394 
yplus max: 129.668, yplus min: 0.0275884 
position of yplus max: -12.0211 1.28998 2.0049 
yplus prom: 3.02458 
forces: 2783.455104 -0.160102 -879.796165 
Drag coefficient: 0.776535 
torque (ref. CG): 0.224143 (roll) -1469.919459 (pitch) 0.976621 (yaw) 
----------------------------------------------------- 
step 94, time 0.047000, maxvel 30.000000, total vol 183256, vol(u>maxvel) 13.2144, cell count 780596
bounding box (containing cells with vel>maxvel): xmin -12.269 -17.1811 -0.503097, xmax 116.741 17.6774 30.9745m 
bounding box of vehicle: xmin -12.2 -1.30048 -6.45439e-18, xmax 6.48827e-18 1.30048 3.6m 
gts area: 163.394 
yplus max: 129.665, yplus min: 0.0279307 
position of yplus max: -12.0211 1.28998 2.0049 
yplus prom: 3.02382 
forces: 2778.321598 -0.165040 -879.377616 
Drag coefficient: 0.775102 
torque (ref. CG): 0.231056 (roll) -1474.553218 (pitch) 1.006745 (yaw) 
----------------------------------------------------- 
step 95, time 0.047500, maxvel 30.000000, total vol 183256, vol(u>maxvel) 14.0492, cell count 777327
bounding box (containing cells with vel>maxvel): xmin -12.269 -17.1816 -0.503097, xmax 116.741 17.6774 30.9779m 
bounding box of vehicle: xmin -12.2 -1.30048 -6.45439e-18, xmax 6.48827e-18 1.30048 3.6m 
gts area: 163.394 
yplus max: 129.662, yplus min: 0.0282823 
position of yplus max: -12.0211 1.28998 2.0049 
yplus prom: 3.02306 
forces: 2773.260916 -0.146523 -878.769858 
Drag coefficient: 0.773691 
torque (ref. CG): 0.205132 (roll) -1477.930849 (pitch) 0.893788 (yaw) 
----------------------------------------------------- 
step 96, time 0.048000, maxvel 30.000000, total vol 183256, vol(u>maxvel) 14.3993, cell count 773970
bounding box (containing cells with vel>maxvel): xmin -12.269 -17.1816 -0.503097, xmax 116.741 17.6774 30.9779m 
bounding box of vehicle: xmin -12.2 -1.30048 -6.45439e-18, xmax 6.48827e-18 1.30048 3.6m 
gts area: 163.394 
yplus max: 129.659, yplus min: 0.0286516 
position of yplus max: -12.0211 1.28998 2.0049 
yplus prom: 3.02229 
forces: 2768.217369 -0.152019 -878.481143 
Drag coefficient: 0.772284 
torque (ref. CG): 0.212827 (roll) -1483.230654 (pitch) 0.927317 (yaw) 
----------------------------------------------------- 
step 97, time 0.048500, maxvel 30.000000, total vol 183256, vol(u>maxvel) 15.0365, cell count 770787
bounding box (containing cells with vel>maxvel): xmin -12.269 -17.1816 -0.503097, xmax 116.741 17.6769 31.5969m 
bounding box of vehicle: xmin -12.2 -1.30048 -6.45439e-18, xmax 6.48827e-18 1.30048 3.6m 
gts area: 163.394 
yplus max: 129.656, yplus min: 0.0290206 
position of yplus max: -12.0211 1.28998 2.0049 
yplus prom: 3.02151 
forces: 2763.215181 -0.151965 -878.102003 
Drag coefficient: 0.770888 
torque (ref. CG): 0.212750 (roll) -1487.920964 (pitch) 0.926984 (yaw) 
----------------------------------------------------- 
step 98, time 0.049000, maxvel 30.000000, total vol 183256, vol(u>maxvel) 15.4784, cell count 767657
bounding box (containing cells with vel>maxvel): xmin -12.269 -17.1819 -0.503097, xmax 116.741 17.6769 31.5969m 
bounding box of vehicle: xmin -12.2 -1.30048 -6.45439e-18, xmax 6.48827e-18 1.30048 3.6m 
gts area: 163.394 
yplus max: 129.654, yplus min: 0.029395 
position of yplus max: -12.0211 1.28998 2.0049 
yplus prom: 3.02073 
forces: 2758.212190 -0.155006 -877.747208 
Drag coefficient: 0.769492 
torque (ref. CG): 0.217009 (roll) -1492.760902 (pitch) 0.945539 (yaw) 
----------------------------------------------------- 
step 99, time 0.049500, maxvel 30.000000, total vol 183256, vol(u>maxvel) 15.8735, cell count 764543
bounding box (containing cells with vel>maxvel): xmin -12.269 -17.1819 -0.503097, xmax 116.741 17.6774 31.5969m 
bounding box of vehicle: xmin -12.2 -1.30048 -6.45439e-18, xmax 6.48827e-18 1.30048 3.6m 
gts area: 163.394 
yplus max: 129.651, yplus min: 0.0261046 
position of yplus max: -12.0211 1.28998 2.0049 
yplus prom: 3.01994 
forces: 2753.195333 -0.155144 -877.406012 
Drag coefficient: 0.768093 
torque (ref. CG): 0.217201 (roll) -1497.703209 (pitch) 0.946376 (yaw) 
----------------------------------------------------- 
step 100, time 0.050000, maxvel 30.000000, total vol 183256, vol(u>maxvel) 16.0874, cell count 761352
bounding box (containing cells with vel>maxvel): xmin -12.269 -17.182 -0.503097, xmax 116.741 17.6774 31.5969m 
bounding box of vehicle: xmin -12.2 -1.30048 -6.45439e-18, xmax 6.48827e-18 1.30048 3.6m 
gts area: 163.394 
yplus max: 129.648, yplus min: 0.0301422 
position of yplus max: -12.0211 1.28998 2.0049 
yplus prom: 3.01915 
forces: 2748.212383 -0.150716 -876.737757 
Drag coefficient: 0.766703 
torque (ref. CG): 0.211002 (roll) -1500.602980 (pitch) 0.919366 (yaw) 
----------------------------------------------------- 
step 101, time 0.050500, maxvel 30.000000, total vol 183256, vol(u>maxvel) 16.4419, cell count 757935
bounding box (containing cells with vel>maxvel): xmin -12.269 -17.182 -0.503097, xmax 116.741 17.6774 31.5969m 
bounding box of vehicle: xmin -12.2 -1.30048 -6.45439e-18, xmax 6.48827e-18 1.30048 3.6m 
gts area: 163.394 
yplus max: 129.646, yplus min: 0.0305328 
position of yplus max: -12.0211 1.28998 2.0049 
yplus prom: 3.01835 
forces: 2743.179353 -0.150660 -876.652563 
Drag coefficient: 0.765298 
torque (ref. CG): 0.210924 (roll) -1507.129542 (pitch) 0.919026 (yaw) 
----------------------------------------------------- 
step 102, time 0.051000, maxvel 30.000000, total vol 183256, vol(u>maxvel) 16.7785, cell count 754390
bounding box (containing cells with vel>maxvel): xmin -12.269 -17.7416 -0.503097, xmax 116.741 17.6774 31.5969m 
bounding box of vehicle: xmin -12.2 -1.30048 -6.45439e-18, xmax 6.48827e-18 1.30048 3.6m 
gts area: 163.394 
yplus max: 129.643, yplus min: 0.030922 
position of yplus max: -12.0211 1.28998 2.0049 
yplus prom: 3.01755 
forces: 2738.182363 -0.149095 -876.437901 
Drag coefficient: 0.763904 
torque (ref. CG): 0.208733 (roll) -1512.815890 (pitch) 0.909481 (yaw) 
----------------------------------------------------- 
step 103, time 0.051500, maxvel 30.000000, total vol 183256, vol(u>maxvel) 17.3783, cell count 751302
bounding box (containing cells with vel>maxvel): xmin -12.269 -17.7424 -0.503097, xmax 116.742 17.6774 31.5969m 
bounding box of vehicle: xmin -12.2 -1.30048 -6.45439e-18, xmax 6.48827e-18 1.30048 3.6m 
gts area: 163.394 
yplus max: 129.641, yplus min: 0.0312927 
position of yplus max: -12.0211 1.28998 2.0049 
yplus prom: 3.01675 
forces: 2733.261839 -0.149098 -875.877414 
Drag coefficient: 0.762532 
torque (ref. CG): 0.208737 (roll) -1516.285651 (pitch) 0.909498 (yaw) 
----------------------------------------------------- 
step 104, time 0.052000, maxvel 30.000000, total vol 183256, vol(u>maxvel) 18.309, cell count 748240
bounding box (containing cells with vel>maxvel): xmin -12.269 -17.7428 -0.503097, xmax 116.742 17.6774 31.5969m 
bounding box of vehicle: xmin -12.2 -1.30048 -6.45439e-18, xmax 6.48827e-18 1.30048 3.6m 
gts area: 163.394 
yplus max: 129.638, yplus min: 0.0311574 
position of yplus max: -12.0211 1.28998 2.0049 
yplus prom: 3.01594 
forces: 2728.365596 -0.150150 -875.497198 
Drag coefficient: 0.761166 
torque (ref. CG): 0.210210 (roll) -1520.821074 (pitch) 0.915915 (yaw) 
----------------------------------------------------- 
step 105, time 0.052500, maxvel 30.000000, total vol 183256, vol(u>maxvel) 18.2907, cell count 745190
bounding box (containing cells with vel>maxvel): xmin -12.269 -17.7428 -0.503097, xmax 116.742 17.6774 31.5969m 
bounding box of vehicle: xmin -12.2 -1.30048 -6.45439e-18, xmax 6.48827e-18 1.30048 3.6m 
gts area: 163.394 
yplus max: 129.636, yplus min: 0.0306743 
position of yplus max: -12.0211 1.28998 2.0049 
yplus prom: 3.01512 
forces: 2723.532644 -0.138774 -875.205984 
Drag coefficient: 0.759817 
torque (ref. CG): 0.194284 (roll) -1525.810800 (pitch) 0.846524 (yaw) 
----------------------------------------------------- 
step 106, time 0.053000, maxvel 30.000000, total vol 183256, vol(u>maxvel) 18.5992, cell count 741866
bounding box (containing cells with vel>maxvel): xmin -12.269 -17.7429 -0.503097, xmax 116.742 17.6774 31.5969m 
bounding box of vehicle: xmin -12.2 -1.30048 -6.45439e-18, xmax 6.48827e-18 1.30048 3.6m 
gts area: 163.394 
yplus max: 129.634, yplus min: 0.0302536 
position of yplus max: -12.0211 1.28998 2.0049 
yplus prom: 3.01431 
forces: 2718.692986 -0.154305 -874.864299 
Drag coefficient: 0.758467 
torque (ref. CG): 0.216027 (roll) -1530.502043 (pitch) 0.941261 (yaw) 
----------------------------------------------------- 
step 107, time 0.053500, maxvel 30.000000, total vol 183256, vol(u>maxvel) 19.0065, cell count 738981
bounding box (containing cells with vel>maxvel): xmin -12.269 -17.7429 -0.503097, xmax 116.742 17.6774 31.5969m 
bounding box of vehicle: xmin -12.2 -1.30048 -6.45439e-18, xmax 6.48827e-18 1.30048 3.6m 
gts area: 163.394 
yplus max: 129.631, yplus min: 0.0298941 
position of yplus max: -12.0211 1.28998 2.0049 
yplus prom: 3.01349 
forces: 2713.916010 -0.144976 -874.427792 
Drag coefficient: 0.757134 
torque (ref. CG): 0.202966 (roll) -1534.527116 (pitch) 0.884352 (yaw) 
----------------------------------------------------- 
step 108, time 0.054000, maxvel 30.000000, total vol 183256, vol(u>maxvel) 19.939, cell count 736033
bounding box (containing cells with vel>maxvel): xmin -12.269 -17.7429 -0.503097, xmax 116.742 17.6774 32.1361m 
bounding box of vehicle: xmin -12.2 -1.30048 -6.45439e-18, xmax 6.48827e-18 1.30048 3.6m 
gts area: 163.394 
yplus max: 129.629, yplus min: 0.0296154 
position of yplus max: -12.0211 1.28998 2.0049 
yplus prom: 3.01267 
forces: 2709.143635 -0.147215 -873.906676 
Drag coefficient: 0.755803 
torque (ref. CG): 0.206101 (roll) -1538.029633 (pitch) 0.898012 (yaw) 
----------------------------------------------------- 
step 109, time 0.054500, maxvel 30.000000, total vol 183256, vol(u>maxvel) 20.3574, cell count 733180
bounding box (containing cells with vel>maxvel): xmin -12.269 -17.7429 -0.503097, xmax 116.742 17.6774 32.1361m 
bounding box of vehicle: xmin -12.2 -1.30048 -6.45439e-18, xmax 6.48827e-18 1.30048 3.6m 
gts area: 163.394 
yplus max: 129.627, yplus min: 0.0294314 
position of yplus max: -12.0211 1.28998 2.0049 
yplus prom: 3.01184 
forces: 2704.379940 -0.142968 -873.677742 
Drag coefficient: 0.754474 
torque (ref. CG): 0.200155 (roll) -1543.302312 (pitch) 0.872104 (yaw) 
----------------------------------------------------- 
step 110, time 0.055000, maxvel 30.000000, total vol 183256, vol(u>maxvel) 20.836, cell count 730506
bounding box (containing cells with vel>maxvel): xmin -12.269 -17.7429 -0.503097, xmax 116.742 17.678 32.1361m 
bounding box of vehicle: xmin -12.2 -1.30048 -6.45439e-18, xmax 6.48827e-18 1.30048 3.6m 
gts area: 163.394 
yplus max: 129.625, yplus min: 0.0293259 
position of yplus max: -12.0211 1.28998 2.0049 
yplus prom: 3.01101 
forces: 2699.607550 -0.140602 -873.416788 
Drag coefficient: 0.753143 
torque (ref. CG): 0.196843 (roll) -1548.391840 (pitch) 0.857672 (yaw) 
----------------------------------------------------- 
step 111, time 0.055500, maxvel 30.000000, total vol 183256, vol(u>maxvel) 21.3692, cell count 727560
bounding box (containing cells with vel>maxvel): xmin -12.269 -17.7429 -0.503097, xmax 116.742 17.6774 32.1361m 
bounding box of vehicle: xmin -12.2 -1.30048 -6.45439e-18, xmax 6.48827e-18 1.30048 3.6m 
gts area: 163.394 
yplus max: 129.623, yplus min: 0.0293147 
position of yplus max: -12.0211 1.28998 2.0049 
yplus prom: 3.01017 
forces: 2694.838333 -0.145182 -872.929902 
Drag coefficient: 0.751812 
torque (ref. CG): 0.203255 (roll) -1552.098739 (pitch) 0.885613 (yaw) 
----------------------------------------------------- 
step 112, time 0.056000, maxvel 30.000000, total vol 183256, vol(u>maxvel) 21.9542, cell count 724814
bounding box (containing cells with vel>maxvel): xmin -12.269 -17.7429 -0.503097, xmax 116.742 17.6774 32.1361m 
bounding box of vehicle: xmin -12.2 -1.30048 -6.45439e-18, xmax 6.48827e-18 1.30048 3.6m 
gts area: 163.394 
yplus max: 129.621, yplus min: 0.0293992 
position of yplus max: -12.0211 1.28998 2.0049 
yplus prom: 3.00933 
forces: 2690.069786 -0.143452 -872.530311 
Drag coefficient: 0.750482 
torque (ref. CG): 0.200832 (roll) -1556.337197 (pitch) 0.875056 (yaw) 
----------------------------------------------------- 
step 113, time 0.056500, maxvel 30.000000, total vol 183256, vol(u>maxvel) 22.3679, cell count 722204
bounding box (containing cells with vel>maxvel): xmin -12.269 -17.7429 -0.503097, xmax 116.742 17.6769 32.1361m 
bounding box of vehicle: xmin -12.2 -1.30048 -6.45439e-18, xmax 6.48827e-18 1.30048 3.6m 
gts area: 163.394 
yplus max: 129.618, yplus min: 0.0295778 
position of yplus max: -12.0211 1.28998 2.0049 
yplus prom: 3.00848 
forces: 2685.294359 -0.140347 -872.192523 
Drag coefficient: 0.749150 
torque (ref. CG): 0.196486 (roll) -1560.962291 (pitch) 0.856120 (yaw) 
----------------------------------------------------- 
step 114, time 0.057000, maxvel 30.000000, total vol 183256, vol(u>maxvel) 23.6108, cell count 719374
bounding box (containing cells with vel>maxvel): xmin -12.269 -17.7429 -0.503097, xmax 116.742 17.6774 32.1361m 
bounding box of vehicle: xmin -12.2 -1.30048 -6.45439e-18, xmax 6.48827e-18 1.30048 3.6m 
gts area: 163.394 
yplus max: 129.616, yplus min: 0.0298155 
position of yplus max: -12.0211 1.28998 2.0049 
yplus prom: 3.00763 
forces: 2680.536545 -0.142774 -871.882512 
Drag coefficient: 0.747822 
torque (ref. CG): 0.199883 (roll) -1565.732160 (pitch) 0.870919 (yaw) 
----------------------------------------------------- 
step 115, time 0.057500, maxvel 30.000000, total vol 183256, vol(u>maxvel) 24.1537, cell count 716694
bounding box (containing cells with vel>maxvel): xmin -12.269 -17.7429 -0.503097, xmax 116.742 17.6774 32.1361m 
bounding box of vehicle: xmin -12.2 -1.30048 -6.45439e-18, xmax 6.48827e-18 1.30048 3.6m 
gts area: 163.394 
yplus max: 129.614, yplus min: 0.0301215 
position of yplus max: -12.0211 1.28998 2.0049 
yplus prom: 3.00678 
forces: 2675.816014 -0.136849 -871.299768 
Drag coefficient: 0.746505 
torque (ref. CG): 0.191588 (roll) -1568.786164 (pitch) 0.834777 (yaw) 
----------------------------------------------------- 
step 116, time 0.058000, maxvel 30.000000, total vol 183256, vol(u>maxvel) 24.7715, cell count 714097
bounding box (containing cells with vel>maxvel): xmin -12.269 -17.7429 -0.503097, xmax 116.742 17.6774 32.1361m 
bounding box of vehicle: xmin -12.2 -1.30048 -6.45439e-18, xmax 6.48827e-18 1.30048 3.6m 
gts area: 163.394 
yplus max: 129.612, yplus min: 0.0305044 
position of yplus max: -12.0211 1.28998 2.0049 
yplus prom: 3.00592 
forces: 2671.093546 -0.138475 -870.814991 
Drag coefficient: 0.745188 
torque (ref. CG): 0.193865 (roll) -1572.440479 (pitch) 0.844697 (yaw) 
----------------------------------------------------- 
step 117, time 0.058500, maxvel 30.000000, total vol 183256, vol(u>maxvel) 26.0057, cell count 711388
bounding box (containing cells with vel>maxvel): xmin -12.269 -17.7429 -0.503097, xmax 116.742 17.6774 32.1361m 
bounding box of vehicle: xmin -12.2 -1.30048 -6.45439e-18, xmax 6.48827e-18 1.30048 3.6m 
gts area: 163.394 
yplus max: 129.611, yplus min: 0.0309761 
position of yplus max: -12.0211 1.28998 2.0049 
yplus prom: 3.00506 
forces: 2666.346708 -0.141234 -870.886458 
Drag coefficient: 0.743863 
torque (ref. CG): 0.197727 (roll) -1579.522005 (pitch) 0.861524 (yaw) 
----------------------------------------------------- 
step 118, time 0.059000, maxvel 30.000000, total vol 183256, vol(u>maxvel) 28.0897, cell count 708779
bounding box (containing cells with vel>maxvel): xmin -12.269 -17.7429 -0.503097, xmax 116.742 17.6774 32.1361m 
bounding box of vehicle: xmin -12.2 -1.30048 -6.45439e-18, xmax 6.48827e-18 1.30048 3.6m 
gts area: 163.394 
yplus max: 129.609, yplus min: 0.031468 
position of yplus max: -12.0211 1.28998 2.0049 
yplus prom: 3.00419 
forces: 2661.661015 -0.129422 -870.268676 
Drag coefficient: 0.742556 
torque (ref. CG): 0.181190 (roll) -1582.313503 (pitch) 0.789472 (yaw) 
----------------------------------------------------- 
step 119, time 0.059500, maxvel 30.000000, total vol 183256, vol(u>maxvel) 28.9123, cell count 706079
bounding box (containing cells with vel>maxvel): xmin -12.269 -17.7429 -0.503097, xmax 116.742 17.6769 32.1361m 
bounding box of vehicle: xmin -12.2 -1.30048 -6.45439e-18, xmax 6.48827e-18 1.30048 3.6m 
gts area: 163.394 
yplus max: 129.607, yplus min: 0.0320345 
position of yplus max: -12.0211 1.28998 2.0049 
yplus prom: 3.00333 
forces: 2656.949674 -0.138116 -869.916103 
Drag coefficient: 0.741242 
torque (ref. CG): 0.193363 (roll) -1586.758684 (pitch) 0.842509 (yaw) 
----------------------------------------------------- 
step 120, time 0.060000, maxvel 30.000000, total vol 183256, vol(u>maxvel) 30.5217, cell count 703444
bounding box (containing cells with vel>maxvel): xmin -12.269 -17.7429 -0.503097, xmax 116.742 17.6766 32.1361m 
bounding box of vehicle: xmin -12.2 -1.30048 -6.45439e-18, xmax 6.48827e-18 1.30048 3.6m 
gts area: 163.394 
yplus max: 129.605, yplus min: 0.0326326 
position of yplus max: -12.0211 1.28998 2.0049 
yplus prom: 3.00245 
forces: 2652.249970 -0.138533 -869.445683 
Drag coefficient: 0.739931 
torque (ref. CG): 0.193946 (roll) -1590.468706 (pitch) 0.845051 (yaw) 
----------------------------------------------------- 
step 121, time 0.060500, maxvel 30.000000, total vol 183256, vol(u>maxvel) 31.6794, cell count 700796
bounding box (containing cells with vel>maxvel): xmin -12.269 -17.7429 -0.503097, xmax 116.742 17.6769 32.1361m 
bounding box of vehicle: xmin -12.2 -1.30048 -6.45439e-18, xmax 6.48827e-18 1.30048 3.6m 
gts area: 163.394 
yplus max: 129.603, yplus min: 0.0332695 
position of yplus max: -12.0211 1.28998 2.0049 
yplus prom: 3.00158 
forces: 2647.564605 -0.134464 -869.134593 
Drag coefficient: 0.738624 
torque (ref. CG): 0.188250 (roll) -1595.130569 (pitch) 0.820232 (yaw) 
----------------------------------------------------- 
step 122, time 0.061000, maxvel 30.000000, total vol 183256, vol(u>maxvel) 33.0875, cell count 698185
bounding box (containing cells with vel>maxvel): xmin -12.269 -17.7429 -0.503097, xmax 116.742 17.6774 32.1361m 
bounding box of vehicle: xmin -12.2 -1.30048 -6.45439e-18, xmax 6.48827e-18 1.30048 3.6m 
gts area: 163.394 
yplus max: 129.601, yplus min: 0.0317871 
position of yplus max: -12.0211 1.28998 2.0049 
yplus prom: 3.0007 
forces: 2642.915257 -0.129920 -868.404011 
Drag coefficient: 0.737327 
torque (ref. CG): 0.181887 (roll) -1597.183109 (pitch) 0.792509 (yaw) 
----------------------------------------------------- 
step 123, time 0.061500, maxvel 30.000000, total vol 183256, vol(u>maxvel) 33.6788, cell count 695528
bounding box (containing cells with vel>maxvel): xmin -12.269 -17.7429 -0.503097, xmax 116.742 17.6774 32.1361m 
bounding box of vehicle: xmin -12.2 -1.30048 -6.45439e-18, xmax 6.48827e-18 1.30048 3.6m 
gts area: 163.394 
yplus max: 129.599, yplus min: 0.0206098 
position of yplus max: -12.0211 1.28998 2.0049 
yplus prom: 2.99982 
forces: 2638.254520 -0.137095 -868.307702 
Drag coefficient: 0.736026 
torque (ref. CG): 0.191934 (roll) -1603.120651 (pitch) 0.836282 (yaw) 
----------------------------------------------------- 
step 124, time 0.062000, maxvel 30.000000, total vol 183256, vol(u>maxvel) 34.7158, cell count 692998
bounding box (containing cells with vel>maxvel): xmin -12.269 -17.7429 -0.503097, xmax 116.742 17.6769 32.1361m 
bounding box of vehicle: xmin -12.2 -1.30048 -6.45439e-18, xmax 6.48827e-18 1.30048 3.6m 
gts area: 163.394 
yplus max: 129.598, yplus min: 0.0353162 
position of yplus max: -12.0211 1.28998 2.0049 
yplus prom: 2.99894 
forces: 2633.640206 -0.135399 -868.122462 
Drag coefficient: 0.734739 
torque (ref. CG): 0.189558 (roll) -1608.450728 (pitch) 0.825931 (yaw) 
----------------------------------------------------- 
step 125, time 0.062500, maxvel 30.000000, total vol 183256, vol(u>maxvel) 36.0039, cell count 690353
bounding box (containing cells with vel>maxvel): xmin -12.269 -17.7429 -0.503097, xmax 116.742 17.6769 32.1361m 
[...]
yplus prom: 2.71813 
forces: 1195.419249 -0.251731 -466.480724 
Drag coefficient: 0.333501 
torque (ref. CG): 0.352424 (roll) -1171.945471 (pitch) 1.535561 (yaw) 
----------------------------------------------------- 
step 1970, time 0.985000, maxvel 30.000000, total vol 183256, vol(u>maxvel) 41.1087, cell count 448451
bounding box (containing cells with vel>maxvel): xmin -12.269 -17.7429 -0.503097, xmax 116.742 17.1821 32.1477m 
bounding box of vehicle: xmin -12.2 -1.30048 -6.45439e-18, xmax 6.48827e-18 1.30048 3.6m 
gts area: 163.394 
yplus max: 129.253, yplus min: 0.0474233 
position of yplus max: -12.0211 1.28998 2.0049 
yplus prom: 2.71814 
forces: 1195.396084 -0.262102 -466.431579 
Drag coefficient: 0.333494 
torque (ref. CG): 0.366943 (roll) -1171.678113 (pitch) 1.598824 (yaw) 
----------------------------------------------------- 
step 1971, time 0.985500, maxvel 30.000000, total vol 183256, vol(u>maxvel) 41.8034, cell count 448453
bounding box (containing cells with vel>maxvel): xmin -12.269 -17.7429 -0.503097, xmax 116.742 17.1821 32.1477m 
bounding box of vehicle: xmin -12.2 -1.30048 -6.45439e-18, xmax 6.48827e-18 1.30048 3.6m 
gts area: 163.394 
yplus max: 129.253, yplus min: 0.0473797 
position of yplus max: -12.0211 1.28998 2.0049 
yplus prom: 2.71816 
forces: 1195.362763 -0.258878 -466.403193 
Drag coefficient: 0.333485 
torque (ref. CG): 0.362429 (roll) -1171.551606 (pitch) 1.579157 (yaw) 
----------------------------------------------------- 
step 1972, time 0.986000, maxvel 30.000000, total vol 183256, vol(u>maxvel) 42.312, cell count 448454
bounding box (containing cells with vel>maxvel): xmin -12.269 -17.7429 -0.503097, xmax 116.742 17.1821 32.1477m 
bounding box of vehicle: xmin -12.2 -1.30048 -6.45439e-18, xmax 6.48827e-18 1.30048 3.6m 
gts area: 163.394 
yplus max: 129.253, yplus min: 0.0473366 
position of yplus max: -12.0211 1.28998 2.0049 
yplus prom: 2.71818 
forces: 1195.315381 -0.257055 -466.636168 
Drag coefficient: 0.333472 
torque (ref. CG): 0.359877 (roll) -1173.039093 (pitch) 1.568037 (yaw) 
----------------------------------------------------- 
step 1973, time 0.986500, maxvel 30.000000, total vol 183256, vol(u>maxvel) 42.545, cell count 448459
bounding box (containing cells with vel>maxvel): xmin -12.269 -17.7429 -0.503097, xmax 116.742 17.1821 32.1477m 
bounding box of vehicle: xmin -12.2 -1.30048 -6.45439e-18, xmax 6.48827e-18 1.30048 3.6m 
gts area: 163.394 
yplus max: 129.253, yplus min: 0.0472908 
position of yplus max: -12.0211 1.28998 2.0049 
yplus prom: 2.71819 
forces: 1195.295068 -0.256372 -466.468656 
Drag coefficient: 0.333466 
torque (ref. CG): 0.358921 (roll) -1172.045708 (pitch) 1.563871 (yaw) 
----------------------------------------------------- 
step 1974, time 0.987000, maxvel 30.000000, total vol 183256, vol(u>maxvel) 42.7147, cell count 448459
bounding box (containing cells with vel>maxvel): xmin -12.269 -17.7429 -0.503097, xmax 116.742 17.1821 32.1477m 
bounding box of vehicle: xmin -12.2 -1.30048 -6.45439e-18, xmax 6.48827e-18 1.30048 3.6m 
gts area: 163.394 
yplus max: 129.253, yplus min: 0.0472442 
position of yplus max: -12.0211 1.28998 2.0049 
yplus prom: 2.71821 
forces: 1195.281877 -0.263266 -466.160874 
Drag coefficient: 0.333462 
torque (ref. CG): 0.368572 (roll) -1170.186705 (pitch) 1.605920 (yaw) 
----------------------------------------------------- 
step 1975, time 0.987500, maxvel 30.000000, total vol 183256, vol(u>maxvel) 42.7147, cell count 448459
bounding box (containing cells with vel>maxvel): xmin -12.269 -17.7429 -0.503097, xmax 116.742 17.1821 32.1477m 
bounding box of vehicle: xmin -12.2 -1.30048 -6.45439e-18, xmax 6.48827e-18 1.30048 3.6m 
gts area: 163.394 
yplus max: 129.253, yplus min: 0.0472016 
position of yplus max: -12.0211 1.28998 2.0049 
yplus prom: 2.71822 
forces: 1195.237505 -0.259082 -466.425409 
Drag coefficient: 0.333450 
torque (ref. CG): 0.362715 (roll) -1171.862487 (pitch) 1.580401 (yaw) 
----------------------------------------------------- 
step 1976, time 0.988000, maxvel 30.000000, total vol 183256, vol(u>maxvel) 43.0919, cell count 448459
bounding box (containing cells with vel>maxvel): xmin -12.269 -17.7429 -0.503097, xmax 116.742 17.1821 32.1477m 
bounding box of vehicle: xmin -12.2 -1.30048 -6.45439e-18, xmax 6.48827e-18 1.30048 3.6m 
gts area: 163.394 
yplus max: 129.253, yplus min: 0.0471558 
position of yplus max: -12.0211 1.28998 2.0049 
yplus prom: 2.71824 
forces: 1195.200395 -0.264622 -466.601821 
Drag coefficient: 0.333440 
torque (ref. CG): 0.370471 (roll) -1172.990557 (pitch) 1.614195 (yaw) 
----------------------------------------------------- 
step 1977, time 0.988500, maxvel 30.000000, total vol 183256, vol(u>maxvel) 43.4157, cell count 448461
bounding box (containing cells with vel>maxvel): xmin -12.269 -17.7429 -0.503097, xmax 116.742 17.1821 32.1477m 
bounding box of vehicle: xmin -12.2 -1.30048 -6.45439e-18, xmax 6.48827e-18 1.30048 3.6m 
gts area: 163.394 
yplus max: 129.253, yplus min: 0.0471079 
position of yplus max: -12.0211 1.28998 2.0049 
yplus prom: 2.71826 
forces: 1195.183968 -0.263223 -466.308971 
Drag coefficient: 0.333435 
torque (ref. CG): 0.368512 (roll) -1171.227166 (pitch) 1.605661 (yaw) 
----------------------------------------------------- 
step 1978, time 0.989000, maxvel 30.000000, total vol 183256, vol(u>maxvel) 43.6023, cell count 448465
bounding box (containing cells with vel>maxvel): xmin -12.269 -17.7429 -0.503097, xmax 116.742 17.1821 32.1477m 
bounding box of vehicle: xmin -12.2 -1.30048 -6.45439e-18, xmax 6.48827e-18 1.30048 3.6m 
gts area: 163.394 
yplus max: 129.253, yplus min: 0.0470629 
position of yplus max: -12.0211 1.28998 2.0049 
yplus prom: 2.71827 
forces: 1195.143695 -0.263344 -466.482545 
Drag coefficient: 0.333424 
torque (ref. CG): 0.368682 (roll) -1172.342352 (pitch) 1.606400 (yaw) 
----------------------------------------------------- 
step 1979, time 0.989500, maxvel 30.000000, total vol 183256, vol(u>maxvel) 43.6023, cell count 448468
bounding box (containing cells with vel>maxvel): xmin -12.269 -17.7429 -0.503097, xmax 116.742 17.1821 32.1477m 
bounding box of vehicle: xmin -12.2 -1.30048 -6.45439e-18, xmax 6.48827e-18 1.30048 3.6m 
gts area: 163.394 
yplus max: 129.253, yplus min: 0.0470156 
position of yplus max: -12.0211 1.28998 2.0049 
yplus prom: 2.71829 
forces: 1195.112702 -0.264121 -466.524785 
Drag coefficient: 0.333415 
torque (ref. CG): 0.369769 (roll) -1172.643404 (pitch) 1.611137 (yaw) 
----------------------------------------------------- 
step 1980, time 0.990000, maxvel 30.000000, total vol 183256, vol(u>maxvel) 43.8818, cell count 448467
bounding box (containing cells with vel>maxvel): xmin -12.269 -17.7429 -0.503097, xmax 116.742 17.1821 32.1477m 
bounding box of vehicle: xmin -12.2 -1.30048 -6.45439e-18, xmax 6.48827e-18 1.30048 3.6m 
gts area: 163.394 
yplus max: 129.253, yplus min: 0.0469675 
position of yplus max: -12.0211 1.28998 2.0049 
yplus prom: 2.71831 
forces: 1195.094002 -0.264984 -466.380073 
Drag coefficient: 0.333410 
torque (ref. CG): 0.370977 (roll) -1171.786842 (pitch) 1.616401 (yaw) 
----------------------------------------------------- 
step 1981, time 0.990500, maxvel 30.000000, total vol 183256, vol(u>maxvel) 44.6366, cell count 448471
bounding box (containing cells with vel>maxvel): xmin -12.269 -17.7429 -0.503097, xmax 116.742 17.1821 32.1477m 
bounding box of vehicle: xmin -12.2 -1.30048 -6.45439e-18, xmax 6.48827e-18 1.30048 3.6m 
gts area: 163.394 
yplus max: 129.253, yplus min: 0.046919 
position of yplus max: -12.0211 1.28998 2.0049 
yplus prom: 2.71832 
forces: 1195.070922 -0.266787 -466.313861 
Drag coefficient: 0.333404 
torque (ref. CG): 0.373501 (roll) -1171.415262 (pitch) 1.627399 (yaw) 
----------------------------------------------------- 
step 1982, time 0.991000, maxvel 30.000000, total vol 183256, vol(u>maxvel) 45.0248, cell count 448473
bounding box (containing cells with vel>maxvel): xmin -12.269 -17.7429 -0.503097, xmax 116.742 17.1821 32.1477m 
bounding box of vehicle: xmin -12.2 -1.30048 -6.45439e-18, xmax 6.48827e-18 1.30048 3.6m 
gts area: 163.394 
yplus max: 129.253, yplus min: 0.0468729 
position of yplus max: -12.0211 1.28998 2.0049 
yplus prom: 2.71834 
forces: 1195.033577 -0.269116 -466.458626 
Drag coefficient: 0.333393 
torque (ref. CG): 0.376763 (roll) -1172.350611 (pitch) 1.641609 (yaw) 
----------------------------------------------------- 
step 1983, time 0.991500, maxvel 30.000000, total vol 183256, vol(u>maxvel) 45.2074, cell count 448475
bounding box (containing cells with vel>maxvel): xmin -12.269 -17.7429 -0.503097, xmax 116.742 17.1821 32.1477m 
bounding box of vehicle: xmin -12.2 -1.30048 -6.45439e-18, xmax 6.48827e-18 1.30048 3.6m 
gts area: 163.394 
yplus max: 129.253, yplus min: 0.0468233 
position of yplus max: -12.0211 1.28998 2.0049 
yplus prom: 2.71835 
forces: 1195.004043 -0.266728 -466.480121 
Drag coefficient: 0.333385 
torque (ref. CG): 0.373419 (roll) -1172.523080 (pitch) 1.627039 (yaw) 
----------------------------------------------------- 
step 1984, time 0.992000, maxvel 30.000000, total vol 183256, vol(u>maxvel) 45.552, cell count 448477
bounding box (containing cells with vel>maxvel): xmin -12.269 -17.7429 -0.503097, xmax 116.742 17.1821 32.1477m 
bounding box of vehicle: xmin -12.2 -1.30048 -6.45439e-18, xmax 6.48827e-18 1.30048 3.6m 
gts area: 163.394 
yplus max: 129.253, yplus min: 0.0467737 
position of yplus max: -12.0211 1.28998 2.0049 
yplus prom: 2.71837 
forces: 1194.981937 -0.266707 -466.439460 
Drag coefficient: 0.333379 
torque (ref. CG): 0.373390 (roll) -1172.305997 (pitch) 1.626914 (yaw) 
----------------------------------------------------- 
step 1985, time 0.992500, maxvel 30.000000, total vol 183256, vol(u>maxvel) 45.552, cell count 448477
bounding box (containing cells with vel>maxvel): xmin -12.269 -17.7429 -0.503097, xmax 116.742 17.1821 32.1477m 
bounding box of vehicle: xmin -12.2 -1.30048 -6.45439e-18, xmax 6.48827e-18 1.30048 3.6m 
gts area: 163.394 
yplus max: 129.253, yplus min: 0.0467265 
position of yplus max: -12.0211 1.28998 2.0049 
yplus prom: 2.71839 
forces: 1194.934355 -0.271345 -466.675552 
Drag coefficient: 0.333366 
torque (ref. CG): 0.379882 (roll) -1173.812773 (pitch) 1.655202 (yaw) 
----------------------------------------------------- 
step 1986, time 0.993000, maxvel 30.000000, total vol 183256, vol(u>maxvel) 45.552, cell count 448475
bounding box (containing cells with vel>maxvel): xmin -12.269 -17.7429 -0.503097, xmax 116.742 17.1821 32.1477m 
bounding box of vehicle: xmin -12.2 -1.30048 -6.45439e-18, xmax 6.48827e-18 1.30048 3.6m 
gts area: 163.394 
yplus max: 129.253, yplus min: 0.0466728 
position of yplus max: -12.0211 1.28998 2.0049 
yplus prom: 2.7184 
forces: 1194.931684 -0.268268 -466.366887 
Drag coefficient: 0.333365 
torque (ref. CG): 0.375576 (roll) -1171.933652 (pitch) 1.636437 (yaw) 
----------------------------------------------------- 
step 1987, time 0.993500, maxvel 30.000000, total vol 183256, vol(u>maxvel) 45.4588, cell count 448472
bounding box (containing cells with vel>maxvel): xmin -12.269 -17.7429 -0.503097, xmax 116.742 17.1821 32.1477m 
bounding box of vehicle: xmin -12.2 -1.30048 -6.45439e-18, xmax 6.48827e-18 1.30048 3.6m 
gts area: 163.394 
yplus max: 129.253, yplus min: 0.0466241 
position of yplus max: -12.0211 1.28998 2.0049 
yplus prom: 2.71842 
forces: 1194.907747 -0.271881 -466.322728 
Drag coefficient: 0.333358 
torque (ref. CG): 0.380633 (roll) -1171.697795 (pitch) 1.658472 (yaw) 
----------------------------------------------------- 
step 1988, time 0.994000, maxvel 30.000000, total vol 183256, vol(u>maxvel) 46.3585, cell count 448478
bounding box (containing cells with vel>maxvel): xmin -12.269 -17.7429 -0.503097, xmax 116.742 17.1821 32.1477m 
bounding box of vehicle: xmin -12.2 -1.30048 -6.45439e-18, xmax 6.48827e-18 1.30048 3.6m 
gts area: 163.394 
yplus max: 129.253, yplus min: 0.0465735 
position of yplus max: -12.0211 1.28998 2.0049 
yplus prom: 2.71844 
forces: 1194.874681 -0.273038 -466.497990 
Drag coefficient: 0.333349 
torque (ref. CG): 0.382254 (roll) -1172.813185 (pitch) 1.665534 (yaw) 
----------------------------------------------------- 
step 1989, time 0.994500, maxvel 30.000000, total vol 183256, vol(u>maxvel) 46.9058, cell count 448478
bounding box (containing cells with vel>maxvel): xmin -12.269 -17.7429 -0.503097, xmax 116.742 17.1821 32.1477m 
bounding box of vehicle: xmin -12.2 -1.30048 -6.45439e-18, xmax 6.48827e-18 1.30048 3.6m 
gts area: 163.394 
yplus max: 129.253, yplus min: 0.046522 
position of yplus max: -12.0211 1.28998 2.0049 
yplus prom: 2.71845 
forces: 1194.849588 -0.272985 -466.465191 
Drag coefficient: 0.333342 
torque (ref. CG): 0.382179 (roll) -1172.648245 (pitch) 1.665210 (yaw) 
----------------------------------------------------- 
step 1990, time 0.995000, maxvel 30.000000, total vol 183256, vol(u>maxvel) 46.9058, cell count 448480
bounding box (containing cells with vel>maxvel): xmin -12.269 -17.7429 -0.503097, xmax 116.742 17.1821 32.1477m 
bounding box of vehicle: xmin -12.2 -1.30048 -6.45439e-18, xmax 6.48827e-18 1.30048 3.6m 
gts area: 163.394 
yplus max: 129.253, yplus min: 0.0464706 
position of yplus max: -12.0211 1.28998 2.0049 
yplus prom: 2.71847 
forces: 1194.823610 -0.274611 -466.487728 
Drag coefficient: 0.333335 
torque (ref. CG): 0.384456 (roll) -1172.822089 (pitch) 1.675130 (yaw) 
----------------------------------------------------- 
step 1991, time 0.995500, maxvel 30.000000, total vol 183256, vol(u>maxvel) 46.3193, cell count 448474
bounding box (containing cells with vel>maxvel): xmin -12.269 -17.7429 -0.503097, xmax 116.742 17.1821 32.1477m 
bounding box of vehicle: xmin -12.2 -1.30048 -6.45439e-18, xmax 6.48827e-18 1.30048 3.6m 
gts area: 163.394 
yplus max: 129.253, yplus min: 0.0464187 
position of yplus max: -12.0211 1.28998 2.0049 
yplus prom: 2.71848 
forces: 1194.792366 -0.273616 -466.557192 
Drag coefficient: 0.333326 
torque (ref. CG): 0.383062 (roll) -1173.289556 (pitch) 1.669056 (yaw) 
----------------------------------------------------- 
step 1992, time 0.996000, maxvel 30.000000, total vol 183256, vol(u>maxvel) 46.5016, cell count 448473
bounding box (containing cells with vel>maxvel): xmin -12.269 -17.7429 -0.503097, xmax 116.742 17.1821 32.1477m 
bounding box of vehicle: xmin -12.2 -1.30048 -6.45439e-18, xmax 6.48827e-18 1.30048 3.6m 
gts area: 163.394 
yplus max: 129.254, yplus min: 0.0463666 
position of yplus max: -12.0211 1.28998 2.0049 
yplus prom: 2.7185 
forces: 1194.761666 -0.281724 -466.703569 
Drag coefficient: 0.333317 
torque (ref. CG): 0.394413 (roll) -1174.225440 (pitch) 1.718515 (yaw) 
----------------------------------------------------- 
step 1993, time 0.996500, maxvel 30.000000, total vol 183256, vol(u>maxvel) 47.2515, cell count 448479
bounding box (containing cells with vel>maxvel): xmin -12.269 -17.7429 -0.503097, xmax 116.742 17.1821 32.1477m 
bounding box of vehicle: xmin -12.2 -1.30048 -6.45439e-18, xmax 6.48827e-18 1.30048 3.6m 
gts area: 163.394 
yplus max: 129.254, yplus min: 0.0463112 
position of yplus max: -12.0211 1.28998 2.0049 
yplus prom: 2.71852 
forces: 1194.762398 -0.272159 -466.263553 
Drag coefficient: 0.333318 
torque (ref. CG): 0.381023 (roll) -1171.540313 (pitch) 1.660171 (yaw) 
----------------------------------------------------- 
step 1994, time 0.997000, maxvel 30.000000, total vol 183256, vol(u>maxvel) 47.6268, cell count 448479
bounding box (containing cells with vel>maxvel): xmin -12.269 -17.7429 -0.503097, xmax 116.742 17.1821 32.1477m 
bounding box of vehicle: xmin -12.2 -1.30048 -6.45439e-18, xmax 6.48827e-18 1.30048 3.6m 
gts area: 163.394 
yplus max: 129.254, yplus min: 0.0462602 
position of yplus max: -12.0211 1.28998 2.0049 
yplus prom: 2.71853 
forces: 1194.714358 -0.278992 -466.708189 
Drag coefficient: 0.333304 
torque (ref. CG): 0.390589 (roll) -1174.319853 (pitch) 1.701854 (yaw) 
----------------------------------------------------- 
step 1995, time 0.997500, maxvel 30.000000, total vol 183256, vol(u>maxvel) 47.807, cell count 448477
bounding box (containing cells with vel>maxvel): xmin -12.269 -17.7429 -0.503097, xmax 116.742 17.1821 32.1477m 
bounding box of vehicle: xmin -12.2 -1.30048 -6.45439e-18, xmax 6.48827e-18 1.30048 3.6m 
gts area: 163.394 
yplus max: 129.254, yplus min: 0.0462056 
position of yplus max: -12.0211 1.28998 2.0049 
yplus prom: 2.71855 
forces: 1194.698889 -0.279851 -466.596431 
Drag coefficient: 0.333300 
torque (ref. CG): 0.391792 (roll) -1173.659786 (pitch) 1.707093 (yaw) 
----------------------------------------------------- 
step 1996, time 0.998000, maxvel 30.000000, total vol 183256, vol(u>maxvel) 48.167, cell count 448476
bounding box (containing cells with vel>maxvel): xmin -12.269 -17.7429 -0.503097, xmax 116.742 17.1821 32.1477m 
bounding box of vehicle: xmin -12.2 -1.30048 -6.45439e-18, xmax 6.48827e-18 1.30048 3.6m 
gts area: 163.394 
yplus max: 129.254, yplus min: 0.0461511 
position of yplus max: -12.0211 1.28998 2.0049 
yplus prom: 2.71857 
forces: 1194.677914 -0.283171 -466.528757 
Drag coefficient: 0.333294 
torque (ref. CG): 0.396439 (roll) -1173.276340 (pitch) 1.727343 (yaw) 
----------------------------------------------------- 
step 1997, time 0.998500, maxvel 30.000000, total vol 183256, vol(u>maxvel) 48.3572, cell count 448475
bounding box (containing cells with vel>maxvel): xmin -12.269 -17.7429 -0.503097, xmax 116.742 17.1821 32.1477m 
bounding box of vehicle: xmin -12.2 -1.30048 -6.45439e-18, xmax 6.48827e-18 1.30048 3.6m 
gts area: 163.394 
yplus max: 129.254, yplus min: 0.0460966 
position of yplus max: -12.0211 1.28998 2.0049 
yplus prom: 2.71858 
forces: 1194.662944 -0.275632 -466.365618 
Drag coefficient: 0.333290 
torque (ref. CG): 0.385885 (roll) -1172.302148 (pitch) 1.681357 (yaw) 
----------------------------------------------------- 
step 1998, time 0.999000, maxvel 30.000000, total vol 183256, vol(u>maxvel) 48.3572, cell count 448473
bounding box (containing cells with vel>maxvel): xmin -12.269 -17.7429 -0.503097, xmax 116.742 17.1821 32.1477m 
bounding box of vehicle: xmin -12.2 -1.30048 -6.45439e-18, xmax 6.48827e-18 1.30048 3.6m 
gts area: 163.394 
yplus max: 129.254, yplus min: 0.0460413 
position of yplus max: -12.0211 1.28998 2.0049 
yplus prom: 2.7186 
forces: 1194.627335 -0.285720 -466.693322 
Drag coefficient: 0.333280 
torque (ref. CG): 0.400009 (roll) -1174.350997 (pitch) 1.742895 (yaw) 
----------------------------------------------------- 
step 1999, time 0.999500, maxvel 30.000000, total vol 183256, vol(u>maxvel) 48.3547, cell count 448474
bounding box (containing cells with vel>maxvel): xmin -12.269 -17.7429 -0.503097, xmax 116.742 17.1821 32.1477m 
bounding box of vehicle: xmin -12.2 -1.30048 -6.45439e-18, xmax 6.48827e-18 1.30048 3.6m 
gts area: 163.394 
yplus max: 129.254, yplus min: 0.0459862 
position of yplus max: -12.0211 1.28998 2.0049 
yplus prom: 2.71862 
forces: 1194.600408 -0.287796 -466.691829 
Drag coefficient: 0.333272 
torque (ref. CG): 0.402914 (roll) -1174.379585 (pitch) 1.755553 (yaw) 
----------------------------------------------------- 
step 2000, time 1.000000, maxvel 30.000000, total vol 183256, vol(u>maxvel) 48.6964, cell count 448476
bounding box (containing cells with vel>maxvel): xmin -12.269 -17.7429 -0.503097, xmax 116.742 17.1821 32.1477m 
bounding box of vehicle: xmin -12.2 -1.30048 -6.45439e-18, xmax 6.48827e-18 1.30048 3.6m 
gts area: 163.394 
yplus max: 129.254, yplus min: 0.0459284 
position of yplus max: -12.0211 1.28998 2.0049 
yplus prom: 2.71863 
forces: 1194.593321 -0.286568 -466.558775 
Drag coefficient: 0.333270 
torque (ref. CG): 0.401195 (roll) -1173.577878 (pitch) 1.748064 (yaw) 
----------------------------------------------------- 

 *****************************
  Post-calculation operations
 *****************************

Ends run at jue ago 25 20:25:58 ART 2022
