/share/storage/pub/mstorti/saturne-vof/libexec/code_saturne/cs_preprocess --log 
--out mesh_input /share/storage/finzeo/CS_GTS_test/MESH/gts_soft_1.med 

  .------------------------------.
  |                              |
  |   Code_Saturne Preprocessor  |
  |                              |
  `------------------------------'

  code_saturne version 6.1-alpha   (built mar 25 ago 2020 16:47:33 ART)

  CGNS 3.4.0 file format support
  MED 3.2.0 (HDF5 1.8.14) file format support
  Reading of compressed files ('.gz') with Zlib 1.2.3



Case configuration
------------------

  Date                : jue 15 sep 2022 14:08:02 ART
  Processor           : Intel(R) Xeon(R) CPU E5-2650 v3 @ 2.30GHz
  Memory              : 132039828
  User                : finzeo ()
  Directory           : /share/storage/finzeo/CS_GTS_test/RESU/20220915-1407

  Case name           : preprocess
  Mesh file           : /share/storage/finzeo/CS_GTS_test/MESH/gts_soft_1.med



Reading mesh from file in MED (EDF/CEA) format
----------------------
  Mesh file: /share/storage/finzeo/CS_GTS_test/MESH/gts_soft_1.med


  Mesh name: gts_soft_1

  Number of vertices                          :  3532100
  Number of faces                             :   120576
                                   Family 1   :    40192
                                   Family 2   :     5632
                                   Family 3   :     5632
                                   Family 4   :    11968
                                   Family 5   :    11968
                                   Family 6   :    36480
                                   Family 7   :     8704
  Number of cells                             :  3471616
                                   Family 0   :  3471616

  Wall-clock time: 1.139355 s; CPU time: 1.138827 s


Done reading mesh
-----------------
  Theoretical mesh size:               216.491 Mb
  Theoretical current memory:          297.334 Mb
  Theoretical peak memory:             668.602 Mb
  Total memory used:                   838.406 Mb

  Domain coordinate extents:

  [-8.11440e+00, -2.25400e+00, -4.94066e-324]
  [ 1.12700e+01,  2.25400e+00,  4.12030e+00]
  Number of elements                    quad4 :   120576
  Number of elements                    hexa8 :  3471616



Defining families
-----------------


  Element orientation check.


End of conversion to descending connectivity
--------------------------------------------
  Theoretical mesh size:               518.554 Mb
  Theoretical current memory:          599.396 Mb
  Theoretical peak memory:               1.510 Gb
  Total memory used:                     1.682 Gb


Main mesh properties
--------------------

  Number of cells:                               3471616
  Number of internal faces:                     10354560
  Number of boundary faces:                       120576
  Number of vertices:                            3532100


Definition of face and cell families
------------------------------------

  Family 1
         Group "GTS"
  Number of boundary faces :    40192
  Family 2
         Group "floor"
  Number of boundary faces :    36480
  Family 3
         Group "inlet"
  Number of boundary faces :     5632
  Family 4
         Group "leftSide"
  Number of boundary faces :    11968
  Family 5
         Group "outlet"
  Number of boundary faces :     5632
  Family 6
         Group "rightSide"
  Number of boundary faces :    11968
  Family 7
         Group "roof"
  Number of boundary faces :     8704
  Family 7
         Default family
         (no group)
  Number of cells          :  3471616
  Number of internal faces : 10354560


Write output for Kernel
-----------------------

  Opening file: mesh_input

  Wrote: "start_block:dimensions"
  Wrote: "n_cells"                         ; Type: "u8"; Size: 1
  Wrote: "n_faces"                         ; Type: "u8"; Size: 1
  Wrote: "n_vertices"                      ; Type: "u8"; Size: 1
  Wrote: "face_vertices_size"              ; Type: "u8"; Size: 1
  Wrote: "n_group_classes"                 ; Type: "i8"; Size: 1
  Wrote: "n_group_class_props_max"         ; Type: "i8"; Size: 1
  Wrote: "n_groups"                        ; Type: "u8"; Size: 1
  Wrote: "group_name_index"                ; Type: "i8"; Size: 8
  Wrote: "group_name"                      ; Type: "c "; Size: 47
  Wrote: "group_class_properties"          ; Type: "i8"; Size: 8
  Wrote: "end_block:dimensions"
  Wrote: "start_block:data"
  Wrote: "face_cells"                      ; Type: "i8"; Size: 20950272
  Wrote: "cell_group_class_id"             ; Type: "i8"; Size: 3471616
  Wrote: "face_group_class_id"             ; Type: "i8"; Size: 10475136
  Wrote: "face_vertices_index"             ; Type: "u8"; Size: 10475137
  Wrote: "face_vertices"                   ; Type: "i8"; Size: 41900544
  Wrote: "vertex_coords"                   ; Type: "r8"; Size: 10596300
  Wrote: "end_block:data"
  Wrote: "EOF"

  Closing file: mesh_input


Time and memory summary
-----------------------

  User CPU time                       (sec)   :        5.42
  System CPU time                     (sec)   :        1.50
  Total time                          (sec)   :        7.15
  Total CPU time / Total time                 :        0.97

Memory use summary:

  Total memory used:                                   1.682 Gb
  Theoretical instrumented dynamic memory:             1.510 Gb


  .-----------------------.
  |                       |
  |  Preprocessor finish  |
  |                       |
  `-----------------------'


