Start run at mié sep 21 14:21:44 ART 2022
PYTHON_CS_XFLAGS=' -O0 -g3 -ggdb3 -I/usr/include/jsoncpp ' /share/storage/pub/mstorti/saturne-vof/bin/code_saturne  run --param setup.xml

The following have been reloaded with a version change:
  1) llvm/6.0.0 => llvm/3.4.2


The following have been reloaded with a version change:
  1) llvm/3.4.2 => llvm/6.0.0


                      Code_Saturne
                      ************

 Version:   6.1-alpha
 Path:      /share/storage/pub/mstorti/saturne-vof

 Result directory:
   /share/storage/finzeo/GTS_Tunay_2/RESU/20220921-1421


 ****************************************
  Compiling user subroutines and linking
 ****************************************


 ****************************
  Preparing calculation data
 ****************************

 Parallel Code_Saturne on 60 processes.


 ***************************
  Preprocessing calculation
 ***************************


 **********************
  Starting calculation
 **********************

Warning: Process to core binding is enabled and OMP_NUM_THREADS is set to non-zero (1) value
If your program has OpenMP sections, this can cause over-subscription of cores and consequently poor performance
To avoid this, please re-run your application after setting MV2_ENABLE_AFFINITY=0
Use MV2_USE_THREAD_WARNING=0 to suppress this message
step 1, time 0.000800, maxvel 3.000000, total vol 183256, vol(u>maxvel) 183256, cell count 40287021
bounding box (containing cells with vel>maxvel): xmin -37.5001 -17.7002 -0.500321, xmax 116.7 17.7002 32.1096m 
bounding box of vehicle: xmin -12.2 -1.3 -4.15385e-18, xmax 4.47233e-18 1.3 3.6m 
gts area: 163.427 
yplus max: 76.2682, yplus min: 0 
position of yplus max: -7.6942 -1.22909 3.59813 
yplus prom: 8.54533 
forces: 22901259.991992 -455.695683 -3096977.824514 
Drag coefficient: 6391.416071 
Lateral coefficient: -0.127178 
Lift coefficient: -864.322480 
torque (ref. CG): 637.973957 (roll) 13170199.259261 (pitch) 2779.743668 (yaw) 
----------------------------------------------------- 
step 2, time 0.001600, maxvel 3.000000, total vol 183256, vol(u>maxvel) 183256, cell count 40290248
bounding box (containing cells with vel>maxvel): xmin -37.5001 -17.7002 -0.500321, xmax 116.7 17.7002 32.1096m 
bounding box of vehicle: xmin -12.2 -1.3 -4.15385e-18, xmax 4.47233e-18 1.3 3.6m 
gts area: 163.427 
yplus max: 75.8941, yplus min: 0.461741 
position of yplus max: -7.6942 -1.22909 3.59813 
yplus prom: 4.36184 
forces: 765295.995822 2.346231 -95738.324289 
Drag coefficient: 213.583232 
Lateral coefficient: 0.000655 
Lift coefficient: -26.719205 
torque (ref. CG): -3.284723 (roll) 487410.615989 (pitch) -14.312008 (yaw) 
----------------------------------------------------- 
step 3, time 0.002400, maxvel 3.000000, total vol 183256, vol(u>maxvel) 183256, cell count 40121379
bounding box (containing cells with vel>maxvel): xmin -37.5001 -17.7002 -0.500321, xmax 116.7 17.7002 32.1096m 
bounding box of vehicle: xmin -12.2 -1.3 -4.15385e-18, xmax 4.47233e-18 1.3 3.6m 
gts area: 163.427 
yplus max: 75.9799, yplus min: 0.0762518 
position of yplus max: -7.6942 -1.22909 3.59813 
yplus prom: 4.36232 
forces: 19901.628046 -2.114761 -2903.583548 
Drag coefficient: 5.554261 
Lateral coefficient: -0.000590 
Lift coefficient: -0.810349 
torque (ref. CG): 2.960666 (roll) 10150.419620 (pitch) 12.900043 (yaw) 
----------------------------------------------------- 
step 4, time 0.003200, maxvel 3.000000, total vol 183256, vol(u>maxvel) 183256, cell count 40078229
bounding box (containing cells with vel>maxvel): xmin -37.5001 -17.7002 -0.500321, xmax 116.7 17.7002 32.1096m 
bounding box of vehicle: xmin -12.2 -1.3 -4.15385e-18, xmax 4.47233e-18 1.3 3.6m 
gts area: 163.427 
yplus max: 78.2757, yplus min: 0.0910875 
position of yplus max: -12.163 -1.19591 0.162214 
yplus prom: 4.4364 
forces: 2332.352854 1.547949 -830.586522 
Drag coefficient: 0.650927 
Lateral coefficient: 0.000432 
Lift coefficient: -0.231805 
torque (ref. CG): -2.167128 (roll) -1801.283790 (pitch) -9.442488 (yaw) 
----------------------------------------------------- 
step 5, time 0.004000, maxvel 3.000000, total vol 183256, vol(u>maxvel) 183256, cell count 40045694
bounding box (containing cells with vel>maxvel): xmin -37.5001 -17.7002 -0.500321, xmax 116.7 17.7002 32.1096m 
bounding box of vehicle: xmin -12.2 -1.3 -4.15385e-18, xmax 4.47233e-18 1.3 3.6m 
gts area: 163.427 
yplus max: 79.0871, yplus min: 0.184872 
position of yplus max: -12.163 -1.19591 0.162214 
yplus prom: 3.86327 
forces: 2439.337020 0.239062 -873.418858 
Drag coefficient: 0.680784 
Lateral coefficient: 0.000067 
Lift coefficient: -0.243759 
torque (ref. CG): -0.334687 (roll) -1912.783206 (pitch) -1.458278 (yaw) 
----------------------------------------------------- 
step 6, time 0.004800, maxvel 3.000000, total vol 183256, vol(u>maxvel) 183256, cell count 39970481
bounding box (containing cells with vel>maxvel): xmin -37.5001 -17.7002 -0.500321, xmax 116.7 17.7002 32.1096m 
bounding box of vehicle: xmin -12.2 -1.3 -4.15385e-18, xmax 4.47233e-18 1.3 3.6m 
gts area: 163.427 
yplus max: 79.3671, yplus min: 0.16104 
position of yplus max: -12.163 -1.19591 0.162214 
yplus prom: 3.43539 
forces: 2669.105496 0.145801 -891.109079 
Drag coefficient: 0.744909 
Lateral coefficient: 0.000041 
Lift coefficient: -0.248696 
torque (ref. CG): -0.204121 (roll) -1699.017686 (pitch) -0.889384 (yaw) 
----------------------------------------------------- 
step 7, time 0.005600, maxvel 3.000000, total vol 183256, vol(u>maxvel) 183256, cell count 38979258
bounding box (containing cells with vel>maxvel): xmin -37.5001 -17.7002 -0.500321, xmax 116.7 17.7002 32.1096m 
bounding box of vehicle: xmin -12.2 -1.3 -4.15385e-18, xmax 4.47233e-18 1.3 3.6m 
gts area: 163.427 
yplus max: 79.5015, yplus min: 0.0746966 
position of yplus max: -12.163 -1.19591 0.162214 
yplus prom: 3.22276 
forces: 2806.041317 0.138571 -889.244236 
Drag coefficient: 0.783126 
Lateral coefficient: 0.000039 
Lift coefficient: -0.248175 
torque (ref. CG): -0.193999 (roll) -1495.931997 (pitch) -0.845281 (yaw) 
----------------------------------------------------- 
step 8, time 0.006400, maxvel 3.000000, total vol 183256, vol(u>maxvel) 183256, cell count 38691349
bounding box (containing cells with vel>maxvel): xmin -37.5001 -17.7002 -0.500321, xmax 116.7 17.7002 32.1096m 
bounding box of vehicle: xmin -12.2 -1.3 -4.15385e-18, xmax 4.47233e-18 1.3 3.6m 
gts area: 163.427 
yplus max: 79.5808, yplus min: 0.118634 
position of yplus max: -12.163 -1.19591 0.162214 
yplus prom: 3.13946 
forces: 2923.739309 0.118055 -884.174041 
Drag coefficient: 0.815974 
Lateral coefficient: 0.000033 
Lift coefficient: -0.246760 
torque (ref. CG): -0.165277 (roll) -1300.226619 (pitch) -0.720133 (yaw) 
----------------------------------------------------- 
step 9, time 0.007200, maxvel 3.000000, total vol 183256, vol(u>maxvel) 183256, cell count 38769408
bounding box (containing cells with vel>maxvel): xmin -37.5001 -17.7002 -0.500321, xmax 116.7 17.7002 32.1096m 
bounding box of vehicle: xmin -12.2 -1.3 -4.15385e-18, xmax 4.47233e-18 1.3 3.6m 
gts area: 163.427 
yplus max: 79.6255, yplus min: 0.104115 
position of yplus max: -12.163 -1.19591 0.162214 
yplus prom: 3.11758 
forces: 3018.641991 0.093422 -880.386767 
Drag coefficient: 0.842460 
Lateral coefficient: 0.000026 
Lift coefficient: -0.245703 
torque (ref. CG): -0.130790 (roll) -1144.260493 (pitch) -0.569873 (yaw) 
----------------------------------------------------- 
step 10, time 0.008000, maxvel 3.000000, total vol 183256, vol(u>maxvel) 183256, cell count 39613414
bounding box (containing cells with vel>maxvel): xmin -37.5001 -17.7002 -0.500321, xmax 116.7 17.7002 32.1096m 
bounding box of vehicle: xmin -12.2 -1.3 -4.15385e-18, xmax 4.47233e-18 1.3 3.6m 
gts area: 163.427 
yplus max: 79.6419, yplus min: 0.0825887 
position of yplus max: -12.163 -1.19591 0.162214 
yplus prom: 3.12508 
forces: 3092.807736 0.076850 -877.626607 
Drag coefficient: 0.863159 
Lateral coefficient: 0.000021 
Lift coefficient: -0.244933 
torque (ref. CG): -0.107590 (roll) -1023.591473 (pitch) -0.468787 (yaw) 
----------------------------------------------------- 
step 11, time 0.008800, maxvel 3.000000, total vol 183256, vol(u>maxvel) 183256, cell count 39811724
bounding box (containing cells with vel>maxvel): xmin -37.5001 -17.7002 -0.500321, xmax 116.7 17.7002 32.1096m 
bounding box of vehicle: xmin -12.2 -1.3 -4.15385e-18, xmax 4.47233e-18 1.3 3.6m 
gts area: 163.427 
yplus max: 79.6359, yplus min: 0.0165535 
position of yplus max: -12.163 -1.19591 0.162214 
yplus prom: 3.14716 
forces: 3150.371776 0.064062 -875.617682 
Drag coefficient: 0.879224 
Lateral coefficient: 0.000018 
Lift coefficient: -0.244372 
torque (ref. CG): -0.089687 (roll) -930.747371 (pitch) -0.390781 (yaw) 
----------------------------------------------------- 
step 12, time 0.009600, maxvel 3.000000, total vol 183256, vol(u>maxvel) 183256, cell count 39856727
bounding box (containing cells with vel>maxvel): xmin -37.5001 -17.7002 -0.500321, xmax 116.7 17.7002 32.1096m 
bounding box of vehicle: xmin -12.2 -1.3 -4.15385e-18, xmax 4.47233e-18 1.3 3.6m 
gts area: 163.427 
yplus max: 79.6135, yplus min: 0.0758417 
position of yplus max: -12.163 -1.19591 0.162214 
yplus prom: 3.17689 
forces: 3193.433262 0.057080 -874.517121 
Drag coefficient: 0.891242 
Lateral coefficient: 0.000016 
Lift coefficient: -0.244065 
torque (ref. CG): -0.079911 (roll) -863.747872 (pitch) -0.348185 (yaw) 
----------------------------------------------------- 
step 13, time 0.010400, maxvel 3.000000, total vol 183256, vol(u>maxvel) 183256, cell count 39870690
bounding box (containing cells with vel>maxvel): xmin -37.5001 -17.7002 -0.500321, xmax 116.7 17.7002 32.1096m 
bounding box of vehicle: xmin -12.2 -1.3 -4.15385e-18, xmax 4.47233e-18 1.3 3.6m 
gts area: 163.427 
yplus max: 79.5814, yplus min: 0.0789968 
position of yplus max: -12.163 -1.19591 0.162214 
yplus prom: 3.20989 
forces: 3222.715991 0.047372 -874.122237 
Drag coefficient: 0.899414 
Lateral coefficient: 0.000013 
Lift coefficient: -0.243955 
torque (ref. CG): -0.066321 (roll) -820.343258 (pitch) -0.288968 (yaw) 
----------------------------------------------------- 
step 14, time 0.011200, maxvel 3.000000, total vol 183256, vol(u>maxvel) 183256, cell count 39872128
bounding box (containing cells with vel>maxvel): xmin -37.5001 -17.7002 -0.500321, xmax 116.7 17.7002 32.1096m 
bounding box of vehicle: xmin -12.2 -1.3 -4.15385e-18, xmax 4.47233e-18 1.3 3.6m 
gts area: 163.427 
yplus max: 79.5433, yplus min: 0.0607176 
position of yplus max: -12.163 -1.19591 0.162214 
yplus prom: 3.24328 
forces: 3242.273650 0.048532 -873.924363 
Drag coefficient: 0.904872 
Lateral coefficient: 0.000014 
Lift coefficient: -0.243900 
torque (ref. CG): -0.067944 (roll) -791.755504 (pitch) -0.296043 (yaw) 
----------------------------------------------------- 
step 15, time 0.012000, maxvel 3.000000, total vol 183256, vol(u>maxvel) 183256, cell count 39873867
bounding box (containing cells with vel>maxvel): xmin -37.5001 -17.7002 -0.500321, xmax 116.7 17.7002 32.1096m 
bounding box of vehicle: xmin -12.2 -1.3 -4.15385e-18, xmax 4.47233e-18 1.3 3.6m 
gts area: 163.427 
yplus max: 79.5022, yplus min: 0.0649196 
position of yplus max: -12.163 -1.19591 0.162214 
yplus prom: 3.27531 
forces: 3254.421852 0.044195 -873.981142 
Drag coefficient: 0.908263 
Lateral coefficient: 0.000012 
Lift coefficient: -0.243916 
torque (ref. CG): -0.061874 (roll) -775.094372 (pitch) -0.269592 (yaw) 
----------------------------------------------------- 
step 16, time 0.012800, maxvel 3.000000, total vol 183256, vol(u>maxvel) 183256, cell count 39873811
bounding box (containing cells with vel>maxvel): xmin -37.5001 -17.7002 -0.500321, xmax 116.7 17.7002 32.1096m 
bounding box of vehicle: xmin -12.2 -1.3 -4.15385e-18, xmax 4.47233e-18 1.3 3.6m 
gts area: 163.427 
yplus max: 79.4603, yplus min: 0.0493026 
position of yplus max: -12.163 -1.19591 0.162214 
yplus prom: 3.30504 
forces: 3260.893035 0.045649 -874.153288 
Drag coefficient: 0.910069 
Lateral coefficient: 0.000013 
Lift coefficient: -0.243964 
torque (ref. CG): -0.063908 (roll) -767.084807 (pitch) -0.278458 (yaw) 
----------------------------------------------------- 
step 17, time 0.013600, maxvel 3.000000, total vol 183256, vol(u>maxvel) 183256, cell count 39867940
bounding box (containing cells with vel>maxvel): xmin -37.5001 -17.7002 -0.500321, xmax 116.7 17.7002 32.1096m 
bounding box of vehicle: xmin -12.2 -1.3 -4.15385e-18, xmax 4.47233e-18 1.3 3.6m 
gts area: 163.427 
yplus max: 79.4189, yplus min: 0.0379098 
position of yplus max: -12.163 -1.19591 0.162214 
yplus prom: 3.33199 
forces: 3262.805599 0.044279 -874.142010 
Drag coefficient: 0.910603 
Lateral coefficient: 0.000012 
Lift coefficient: -0.243961 
torque (ref. CG): -0.061991 (roll) -764.338419 (pitch) -0.270103 (yaw) 
----------------------------------------------------- 
step 18, time 0.014400, maxvel 3.000000, total vol 183256, vol(u>maxvel) 183256, cell count 39853869
bounding box (containing cells with vel>maxvel): xmin -37.5001 -17.7002 -0.500321, xmax 116.7 17.7002 32.1096m 
bounding box of vehicle: xmin -12.2 -1.3 -4.15385e-18, xmax 4.47233e-18 1.3 3.6m 
gts area: 163.427 
yplus max: 79.3787, yplus min: 0.0475588 
position of yplus max: -12.163 -1.19591 0.162214 
yplus prom: 3.35613 
forces: 3260.871261 0.046312 -873.804753 
Drag coefficient: 0.910063 
Lateral coefficient: 0.000013 
Lift coefficient: -0.243866 
torque (ref. CG): -0.064837 (roll) -764.989226 (pitch) -0.282506 (yaw) 
----------------------------------------------------- 
step 19, time 0.015200, maxvel 3.000000, total vol 183256, vol(u>maxvel) 183256, cell count 39844025
bounding box (containing cells with vel>maxvel): xmin -37.5001 -17.7002 -0.500321, xmax 116.7 17.7002 32.1096m 
bounding box of vehicle: xmin -12.2 -1.3 -4.15385e-18, xmax 4.47233e-18 1.3 3.6m 
gts area: 163.427 
yplus max: 79.3402, yplus min: 0.0251814 
position of yplus max: -12.163 -1.19591 0.162214 
yplus prom: 3.37778 
forces: 3255.590439 0.046340 -873.452261 
Drag coefficient: 0.908589 
Lateral coefficient: 0.000013 
Lift coefficient: -0.243768 
torque (ref. CG): -0.064877 (roll) -770.232176 (pitch) -0.282676 (yaw) 
----------------------------------------------------- 
step 20, time 0.016000, maxvel 3.000000, total vol 183256, vol(u>maxvel) 183256, cell count 39833287
bounding box (containing cells with vel>maxvel): xmin -37.5001 -17.7002 -0.500321, xmax 116.7 17.7002 32.1096m 
bounding box of vehicle: xmin -12.2 -1.3 -4.15385e-18, xmax 4.47233e-18 1.3 3.6m 
gts area: 163.427 
yplus max: 79.3037, yplus min: 0.0406482 
position of yplus max: -12.163 -1.19591 0.162214 
yplus prom: 3.39717 
forces: 3247.563692 0.047392 -873.106232 
Drag coefficient: 0.906349 
Lateral coefficient: 0.000013 
Lift coefficient: -0.243672 
torque (ref. CG): -0.066349 (roll) -779.358845 (pitch) -0.289092 (yaw) 
----------------------------------------------------- 
step 21, time 0.016800, maxvel 3.000000, total vol 183256, vol(u>maxvel) 183256, cell count 39820205
bounding box (containing cells with vel>maxvel): xmin -37.5001 -17.7002 -0.500321, xmax 116.7 17.7002 32.1096m 
bounding box of vehicle: xmin -12.2 -1.3 -4.15385e-18, xmax 4.47233e-18 1.3 3.6m 
gts area: 163.427 
yplus max: 79.2693, yplus min: 0.0433336 
position of yplus max: -12.163 -1.19591 0.162214 
yplus prom: 3.41452 
forces: 3237.848440 0.044900 -872.689379 
Drag coefficient: 0.903637 
Lateral coefficient: 0.000013 
Lift coefficient: -0.243555 
torque (ref. CG): -0.062861 (roll) -790.417398 (pitch) -0.273893 (yaw) 
----------------------------------------------------- 
step 22, time 0.017600, maxvel 3.000000, total vol 183256, vol(u>maxvel) 183256, cell count 39806843
bounding box (containing cells with vel>maxvel): xmin -37.5001 -17.7002 -0.500321, xmax 116.7 17.7002 32.1096m 
bounding box of vehicle: xmin -12.2 -1.3 -4.15385e-18, xmax 4.47233e-18 1.3 3.6m 
gts area: 163.427 
yplus max: 79.237, yplus min: 0.0103703 
position of yplus max: -12.163 -1.19591 0.162214 
yplus prom: 3.43004 
forces: 3227.113513 0.046296 -872.237211 
Drag coefficient: 0.900642 
Lateral coefficient: 0.000013 
Lift coefficient: -0.243429 
torque (ref. CG): -0.064815 (roll) -802.688070 (pitch) -0.282408 (yaw) 
----------------------------------------------------- 
step 23, time 0.018400, maxvel 3.000000, total vol 183256, vol(u>maxvel) 183256, cell count 39787523
bounding box (containing cells with vel>maxvel): xmin -37.5001 -17.7002 -0.500321, xmax 116.7 17.7002 32.1096m 
bounding box of vehicle: xmin -12.2 -1.3 -4.15385e-18, xmax 4.47233e-18 1.3 3.6m 
gts area: 163.427 
yplus max: 79.2068, yplus min: 0.034052 
position of yplus max: -12.163 -1.19591 0.162214 
yplus prom: 3.4439 
forces: 3215.414693 0.045997 -871.814364 
Drag coefficient: 0.897377 
Lateral coefficient: 0.000013 
Lift coefficient: -0.243311 
torque (ref. CG): -0.064396 (roll) -816.487053 (pitch) -0.280584 (yaw) 
----------------------------------------------------- 
step 24, time 0.019200, maxvel 3.000000, total vol 183256, vol(u>maxvel) 183256, cell count 39770052
bounding box (containing cells with vel>maxvel): xmin -37.5001 -17.7002 -0.500321, xmax 116.7 17.7002 32.1096m 
bounding box of vehicle: xmin -12.2 -1.3 -4.15385e-18, xmax 4.47233e-18 1.3 3.6m 
gts area: 163.427 
yplus max: 79.1785, yplus min: 0.0240392 
position of yplus max: -12.163 -1.19591 0.162214 
yplus prom: 3.45628 
forces: 3203.033124 0.045300 -871.431127 
Drag coefficient: 0.893921 
Lateral coefficient: 0.000013 
Lift coefficient: -0.243204 
torque (ref. CG): -0.063420 (roll) -831.483501 (pitch) -0.276329 (yaw) 
----------------------------------------------------- 
step 25, time 0.020000, maxvel 3.000000, total vol 183256, vol(u>maxvel) 183256, cell count 39749305
bounding box (containing cells with vel>maxvel): xmin -37.5001 -17.7002 -0.500321, xmax 116.7 17.7002 32.1096m 
bounding box of vehicle: xmin -12.2 -1.3 -4.15385e-18, xmax 4.47233e-18 1.3 3.6m 
gts area: 163.427 
yplus max: 79.152, yplus min: 0.0241216 
position of yplus max: -12.163 -1.19591 0.162214 
yplus prom: 3.4674 
forces: 3190.129205 0.039552 -871.125451 
Drag coefficient: 0.890320 
Lateral coefficient: 0.000011 
Lift coefficient: -0.243119 
torque (ref. CG): -0.055373 (roll) -847.684366 (pitch) -0.241269 (yaw) 
----------------------------------------------------- 
step 26, time 0.020800, maxvel 3.000000, total vol 183256, vol(u>maxvel) 183256, cell count 39727426
bounding box (containing cells with vel>maxvel): xmin -37.5001 -17.7002 -0.500321, xmax 116.7 17.7002 32.1096m 
bounding box of vehicle: xmin -12.2 -1.3 -4.15385e-18, xmax 4.47233e-18 1.3 3.6m 
gts area: 163.427 
yplus max: 79.1272, yplus min: 0.0316647 
position of yplus max: -12.163 -1.19591 0.162214 
yplus prom: 3.47741 
forces: 3176.807686 0.042755 -870.813750 
Drag coefficient: 0.886602 
Lateral coefficient: 0.000012 
Lift coefficient: -0.243032 
torque (ref. CG): -0.059857 (roll) -864.433118 (pitch) -0.260805 (yaw) 
----------------------------------------------------- 
step 27, time 0.021600, maxvel 3.000000, total vol 183256, vol(u>maxvel) 183256, cell count 39712792
bounding box (containing cells with vel>maxvel): xmin -37.5001 -17.7002 -0.500321, xmax 116.7 17.7002 32.1096m 
bounding box of vehicle: xmin -12.2 -1.3 -4.15385e-18, xmax 4.47233e-18 1.3 3.6m 
gts area: 163.427 
yplus max: 79.1038, yplus min: 0.057278 
position of yplus max: -12.163 -1.19591 0.162214 
yplus prom: 3.48634 
forces: 3163.141927 0.034761 -870.446456 
Drag coefficient: 0.882788 
Lateral coefficient: 0.000010 
Lift coefficient: -0.242929 
torque (ref. CG): -0.048665 (roll) -881.324684 (pitch) -0.212041 (yaw) 
----------------------------------------------------- 
step 28, time 0.022400, maxvel 3.000000, total vol 183256, vol(u>maxvel) 183256, cell count 39701711
bounding box (containing cells with vel>maxvel): xmin -37.5001 -17.7002 -0.500321, xmax 116.7 17.7002 32.1096m 
bounding box of vehicle: xmin -12.2 -1.3 -4.15385e-18, xmax 4.47233e-18 1.3 3.6m 
gts area: 163.427 
yplus max: 79.0818, yplus min: 0.0625445 
position of yplus max: -12.163 -1.19591 0.162214 
yplus prom: 3.49449 
forces: 3150.142457 0.037331 -870.130393 
Drag coefficient: 0.879160 
Lateral coefficient: 0.000010 
Lift coefficient: -0.242841 
torque (ref. CG): -0.052264 (roll) -897.595960 (pitch) -0.227722 (yaw) 
----------------------------------------------------- 
step 29, time 0.023200, maxvel 3.000000, total vol 183256, vol(u>maxvel) 183256, cell count 39693709
bounding box (containing cells with vel>maxvel): xmin -37.5001 -17.7002 -0.500321, xmax 116.7 17.7002 32.1096m 
bounding box of vehicle: xmin -12.2 -1.3 -4.15385e-18, xmax 4.47233e-18 1.3 3.6m 
gts area: 163.427 
yplus max: 79.0611, yplus min: 0.0637822 
position of yplus max: -12.163 -1.19591 0.162214 
yplus prom: 3.50186 
forces: 3137.541911 0.024805 -869.878380 
Drag coefficient: 0.875643 
Lateral coefficient: 0.000007 
Lift coefficient: -0.242771 
torque (ref. CG): -0.034727 (roll) -913.699446 (pitch) -0.151309 (yaw) 
----------------------------------------------------- 
step 30, time 0.024000, maxvel 3.000000, total vol 183256, vol(u>maxvel) 183256, cell count 39687779
bounding box (containing cells with vel>maxvel): xmin -37.5001 -17.7002 -0.500321, xmax 116.7 17.7002 32.1096m 
bounding box of vehicle: xmin -12.2 -1.3 -4.15385e-18, xmax 4.47233e-18 1.3 3.6m 
gts area: 163.427 
yplus max: 79.0415, yplus min: 0.094331 
position of yplus max: -12.163 -1.19591 0.162214 
yplus prom: 3.5086 
forces: 3125.371655 0.038757 -869.597272 
Drag coefficient: 0.872247 
Lateral coefficient: 0.000011 
Lift coefficient: -0.242692 
torque (ref. CG): -0.054260 (roll) -929.023041 (pitch) -0.236419 (yaw) 
----------------------------------------------------- 
step 31, time 0.024800, maxvel 3.000000, total vol 183256, vol(u>maxvel) 183256, cell count 39682621
bounding box (containing cells with vel>maxvel): xmin -37.5001 -17.7002 -0.500321, xmax 116.7 17.7002 32.1096m 
bounding box of vehicle: xmin -12.2 -1.3 -4.15385e-18, xmax 4.47233e-18 1.3 3.6m 
gts area: 163.427 
yplus max: 79.023, yplus min: 0.0277733 
position of yplus max: -12.163 -1.19591 0.162214 
yplus prom: 3.51491 
forces: 3113.254584 0.024235 -869.268954 
Drag coefficient: 0.868865 
Lateral coefficient: 0.000007 
Lift coefficient: -0.242601 
torque (ref. CG): -0.033929 (roll) -943.984202 (pitch) -0.147835 (yaw) 
----------------------------------------------------- 
step 32, time 0.025600, maxvel 3.000000, total vol 183256, vol(u>maxvel) 183256, cell count 39677291
bounding box (containing cells with vel>maxvel): xmin -37.5001 -17.7002 -0.500321, xmax 116.7 17.7002 32.1096m 
bounding box of vehicle: xmin -12.2 -1.3 -4.15385e-18, xmax 4.47233e-18 1.3 3.6m 
gts area: 163.427 
yplus max: 79.0055, yplus min: 0.0735314 
position of yplus max: -12.163 -1.19591 0.162214 
yplus prom: 3.52086 
forces: 3101.682648 0.025581 -868.914633 
Drag coefficient: 0.865636 
Lateral coefficient: 0.000007 
Lift coefficient: -0.242502 
torque (ref. CG): -0.035814 (roll) -958.023552 (pitch) -0.156046 (yaw) 
----------------------------------------------------- 
step 33, time 0.026400, maxvel 3.000000, total vol 183256, vol(u>maxvel) 183256, cell count 39674200
bounding box (containing cells with vel>maxvel): xmin -37.5001 -17.7002 -0.500321, xmax 116.7 17.7002 32.1096m 
bounding box of vehicle: xmin -12.2 -1.3 -4.15385e-18, xmax 4.47233e-18 1.3 3.6m 
gts area: 163.427 
yplus max: 78.9891, yplus min: 0.0835324 
position of yplus max: -12.163 -1.19591 0.162214 
yplus prom: 3.52636 
forces: 3090.424358 0.027647 -868.540791 
Drag coefficient: 0.862494 
Lateral coefficient: 0.000008 
Lift coefficient: -0.242397 
torque (ref. CG): -0.038706 (roll) -971.504721 (pitch) -0.168646 (yaw) 
----------------------------------------------------- 
step 34, time 0.027200, maxvel 3.000000, total vol 183256, vol(u>maxvel) 183256, cell count 39672007
bounding box (containing cells with vel>maxvel): xmin -37.5001 -17.7002 -0.500321, xmax 116.7 17.7002 32.1096m 
bounding box of vehicle: xmin -12.2 -1.3 -4.15385e-18, xmax 4.47233e-18 1.3 3.6m 
gts area: 163.427 
yplus max: 78.9736, yplus min: 0.0324909 
position of yplus max: -12.163 -1.19591 0.162214 
yplus prom: 3.53132 
forces: 3079.399347 0.026562 -868.103205 
Drag coefficient: 0.859417 
Lateral coefficient: 0.000007 
Lift coefficient: -0.242275 
torque (ref. CG): -0.037186 (roll) -984.270467 (pitch) -0.162027 (yaw) 
----------------------------------------------------- 
step 35, time 0.028000, maxvel 3.000000, total vol 183256, vol(u>maxvel) 183256, cell count 39670029
bounding box (containing cells with vel>maxvel): xmin -37.5001 -17.7002 -0.500321, xmax 116.7 17.7002 32.1096m 
bounding box of vehicle: xmin -12.2 -1.3 -4.15385e-18, xmax 4.47233e-18 1.3 3.6m 
gts area: 163.427 
yplus max: 78.959, yplus min: 0.0526699 
position of yplus max: -12.163 -1.19591 0.162214 
yplus prom: 3.53565 
forces: 3068.373158 0.024188 -867.667507 
Drag coefficient: 0.856339 
Lateral coefficient: 0.000007 
Lift coefficient: -0.242154 
torque (ref. CG): -0.033863 (roll) -997.049372 (pitch) -0.147545 (yaw) 
----------------------------------------------------- 
step 36, time 0.028800, maxvel 3.000000, total vol 183256, vol(u>maxvel) 183256, cell count 39668250
bounding box (containing cells with vel>maxvel): xmin -37.5001 -17.7002 -0.500321, xmax 116.7 17.7002 32.1096m 
bounding box of vehicle: xmin -12.2 -1.3 -4.15385e-18, xmax 4.47233e-18 1.3 3.6m 
gts area: 163.427 
yplus max: 78.9454, yplus min: 0.0373317 
position of yplus max: -12.163 -1.19591 0.162214 
yplus prom: 3.53934 
forces: 3057.245455 0.022434 -867.203788 
Drag coefficient: 0.853234 
Lateral coefficient: 0.000006 
Lift coefficient: -0.242024 
torque (ref. CG): -0.031408 (roll) -1009.799467 (pitch) -0.136850 (yaw) 
----------------------------------------------------- 
step 37, time 0.029600, maxvel 3.000000, total vol 183256, vol(u>maxvel) 183256, cell count 39669213
bounding box (containing cells with vel>maxvel): xmin -37.5001 -17.7002 -0.500321, xmax 116.7 17.7002 32.1096m 
bounding box of vehicle: xmin -12.2 -1.3 -4.15385e-18, xmax 4.47233e-18 1.3 3.6m 
gts area: 163.427 
yplus max: 78.9327, yplus min: 0.0800306 
position of yplus max: -12.163 -1.19591 0.162214 
yplus prom: 3.5424 
forces: 3046.027995 0.023038 -866.749768 
Drag coefficient: 0.850103 
Lateral coefficient: 0.000006 
Lift coefficient: -0.241898 
torque (ref. CG): -0.032253 (roll) -1022.734391 (pitch) -0.140530 (yaw) 
----------------------------------------------------- 
step 38, time 0.030400, maxvel 3.000000, total vol 183256, vol(u>maxvel) 183256, cell count 39670829
bounding box (containing cells with vel>maxvel): xmin -37.5001 -17.7002 -0.500321, xmax 116.7 17.7002 32.1096m 
bounding box of vehicle: xmin -12.2 -1.3 -4.15385e-18, xmax 4.47233e-18 1.3 3.6m 
gts area: 163.427 
yplus max: 78.9208, yplus min: 0.0808046 
position of yplus max: -12.163 -1.19591 0.162214 
yplus prom: 3.54491 
forces: 3034.658615 0.022874 -866.312785 
Drag coefficient: 0.846930 
Lateral coefficient: 0.000006 
Lift coefficient: -0.241776 
torque (ref. CG): -0.032024 (roll) -1035.985928 (pitch) -0.139533 (yaw) 
----------------------------------------------------- 
step 39, time 0.031200, maxvel 3.000000, total vol 183256, vol(u>maxvel) 183256, cell count 39671990
bounding box (containing cells with vel>maxvel): xmin -37.5001 -17.7002 -0.500321, xmax 116.7 17.7002 32.1096m 
bounding box of vehicle: xmin -12.2 -1.3 -4.15385e-18, xmax 4.47233e-18 1.3 3.6m 
gts area: 163.427 
yplus max: 78.9097, yplus min: 0.0641698 
position of yplus max: -12.163 -1.19591 0.162214 
yplus prom: 3.54703 
forces: 3023.087160 0.022391 -865.861518 
Drag coefficient: 0.843701 
Lateral coefficient: 0.000006 
Lift coefficient: -0.241650 
torque (ref. CG): -0.031347 (roll) -1049.433239 (pitch) -0.136583 (yaw) 
----------------------------------------------------- 
step 40, time 0.032000, maxvel 3.000000, total vol 183256, vol(u>maxvel) 183256, cell count 39673583
bounding box (containing cells with vel>maxvel): xmin -37.5001 -17.7002 -0.500321, xmax 116.7 17.7002 32.1096m 
bounding box of vehicle: xmin -12.2 -1.3 -4.15385e-18, xmax 4.47233e-18 1.3 3.6m 
gts area: 163.427 
yplus max: 78.8995, yplus min: 0.0680927 
position of yplus max: -12.163 -1.19591 0.162214 
yplus prom: 3.54891 
forces: 3011.327503 0.021737 -865.381666 
Drag coefficient: 0.840419 
Lateral coefficient: 0.000006 
Lift coefficient: -0.241516 
torque (ref. CG): -0.030431 (roll) -1062.969658 (pitch) -0.132594 (yaw) 
----------------------------------------------------- 
step 41, time 0.032800, maxvel 3.000000, total vol 183256, vol(u>maxvel) 183256, cell count 39675213
bounding box (containing cells with vel>maxvel): xmin -37.5001 -17.7002 -0.500321, xmax 116.7 17.7002 32.1096m 
bounding box of vehicle: xmin -12.2 -1.3 -4.15385e-18, xmax 4.47233e-18 1.3 3.6m 
gts area: 163.427 
yplus max: 78.8899, yplus min: 0.0506051 
position of yplus max: -12.163 -1.19591 0.162214 
yplus prom: 3.55063 
forces: 2999.444789 0.022916 -864.948565 
Drag coefficient: 0.837102 
Lateral coefficient: 0.000006 
Lift coefficient: -0.241395 
torque (ref. CG): -0.032082 (roll) -1076.963544 (pitch) -0.139787 (yaw) 
----------------------------------------------------- 
step 42, time 0.033600, maxvel 3.000000, total vol 183256, vol(u>maxvel) 183256, cell count 39676244
bounding box (containing cells with vel>maxvel): xmin -37.5001 -17.7002 -0.500321, xmax 116.7 17.7002 32.1096m 
bounding box of vehicle: xmin -12.2 -1.3 -4.15385e-18, xmax 4.47233e-18 1.3 3.6m 
gts area: 163.427 
yplus max: 78.881, yplus min: 0.069293 
position of yplus max: -12.163 -1.19591 0.162214 
yplus prom: 3.55225 
forces: 2987.513136 0.021452 -864.541216 
Drag coefficient: 0.833772 
Lateral coefficient: 0.000006 
Lift coefficient: -0.241281 
torque (ref. CG): -0.030033 (roll) -1091.183026 (pitch) -0.130860 (yaw) 
----------------------------------------------------- 
step 43, time 0.034400, maxvel 3.000000, total vol 183256, vol(u>maxvel) 183256, cell count 39676220
bounding box (containing cells with vel>maxvel): xmin -37.5001 -17.7002 -0.500321, xmax 116.7 17.7002 32.1096m 
bounding box of vehicle: xmin -12.2 -1.3 -4.15385e-18, xmax 4.47233e-18 1.3 3.6m 
gts area: 163.427 
yplus max: 78.8728, yplus min: 0.0820369 
position of yplus max: -12.163 -1.19591 0.162214 
yplus prom: 3.55371 
forces: 2975.535004 0.020629 -864.161859 
Drag coefficient: 0.830430 
Lateral coefficient: 0.000006 
Lift coefficient: -0.241175 
torque (ref. CG): -0.028881 (roll) -1105.638335 (pitch) -0.125838 (yaw) 
----------------------------------------------------- 
step 44, time 0.035200, maxvel 3.000000, total vol 183256, vol(u>maxvel) 183256, cell count 39674854
bounding box (containing cells with vel>maxvel): xmin -37.5001 -17.7002 -0.500321, xmax 116.7 17.7002 32.1096m 
bounding box of vehicle: xmin -12.2 -1.3 -4.15385e-18, xmax 4.47233e-18 1.3 3.6m 
gts area: 163.427 
yplus max: 78.8652, yplus min: 0.0772304 
position of yplus max: -12.163 -1.19591 0.162214 
yplus prom: 3.555 
forces: 2963.531927 0.021766 -863.735996 
Drag coefficient: 0.827080 
Lateral coefficient: 0.000006 
Lift coefficient: -0.241056 
torque (ref. CG): -0.030473 (roll) -1119.844876 (pitch) -0.132776 (yaw) 
----------------------------------------------------- 
step 45, time 0.036000, maxvel 3.000000, total vol 183256, vol(u>maxvel) 183256, cell count 39673737
bounding box (containing cells with vel>maxvel): xmin -37.5001 -17.7002 -0.500321, xmax 116.7 17.7002 32.1096m 
bounding box of vehicle: xmin -12.2 -1.3 -4.15385e-18, xmax 4.47233e-18 1.3 3.6m 
gts area: 163.427 
yplus max: 78.8581, yplus min: 0.0760988 
position of yplus max: -12.163 -1.19591 0.162214 
yplus prom: 3.55609 
forces: 2951.442460 0.020599 -863.416138 
Drag coefficient: 0.823706 
Lateral coefficient: 0.000006 
Lift coefficient: -0.240967 
torque (ref. CG): -0.028838 (roll) -1134.818995 (pitch) -0.125652 (yaw) 
----------------------------------------------------- 
step 46, time 0.036800, maxvel 3.000000, total vol 183256, vol(u>maxvel) 183255, cell count 39673991
bounding box (containing cells with vel>maxvel): xmin -37.5001 -17.7002 -0.500321, xmax 116.7 17.7002 32.1096m 
bounding box of vehicle: xmin -12.2 -1.3 -4.15385e-18, xmax 4.47233e-18 1.3 3.6m 
gts area: 163.427 
yplus max: 78.8515, yplus min: 0.0828612 
position of yplus max: -12.163 -1.19591 0.162214 
yplus prom: 3.55692 
forces: 2939.688250 0.020594 -863.076541 
Drag coefficient: 0.820425 
Lateral coefficient: 0.000006 
Lift coefficient: -0.240872 
torque (ref. CG): -0.028832 (roll) -1149.203350 (pitch) -0.125625 (yaw) 
----------------------------------------------------- 
step 47, time 0.037600, maxvel 3.000000, total vol 183256, vol(u>maxvel) 183255, cell count 39674011
bounding box (containing cells with vel>maxvel): xmin -37.5001 -17.7002 -0.500321, xmax 116.7 17.7002 32.1096m 
bounding box of vehicle: xmin -12.2 -1.3 -4.15385e-18, xmax 4.47233e-18 1.3 3.6m 
gts area: 163.427 
yplus max: 78.8454, yplus min: 0.0679368 
position of yplus max: -12.163 -1.19591 0.162214 
yplus prom: 3.55746 
forces: 2928.063159 0.020284 -862.742809 
Drag coefficient: 0.817181 
Lateral coefficient: 0.000006 
Lift coefficient: -0.240779 
torque (ref. CG): -0.028398 (roll) -1163.442712 (pitch) -0.123734 (yaw) 
----------------------------------------------------- 
step 48, time 0.038400, maxvel 3.000000, total vol 183256, vol(u>maxvel) 183255, cell count 39675228
bounding box (containing cells with vel>maxvel): xmin -37.5001 -17.7002 -0.500321, xmax 116.7 17.7002 32.1096m 
bounding box of vehicle: xmin -12.2 -1.3 -4.15385e-18, xmax 4.47233e-18 1.3 3.6m 
gts area: 163.427 
yplus max: 78.8397, yplus min: 0.080716 
position of yplus max: -12.163 -1.19591 0.162214 
yplus prom: 3.55767 
forces: 2916.493347 0.020393 -862.463523 
Drag coefficient: 0.813952 
Lateral coefficient: 0.000006 
Lift coefficient: -0.240701 
torque (ref. CG): -0.028550 (roll) -1177.936805 (pitch) -0.124398 (yaw) 
----------------------------------------------------- 
step 49, time 0.039200, maxvel 3.000000, total vol 183256, vol(u>maxvel) 183255, cell count 39676397
bounding box (containing cells with vel>maxvel): xmin -37.5001 -17.7002 -0.500321, xmax 116.7 17.7002 32.1096m 
bounding box of vehicle: xmin -12.2 -1.3 -4.15385e-18, xmax 4.47233e-18 1.3 3.6m 
gts area: 163.427 
yplus max: 78.8344, yplus min: 0.0796542 
position of yplus max: -12.163 -1.19591 0.162214 
yplus prom: 3.55753 
forces: 2905.291015 0.019235 -862.219176 
Drag coefficient: 0.810825 
Lateral coefficient: 0.000005 
Lift coefficient: -0.240633 
torque (ref. CG): -0.026929 (roll) -1192.129552 (pitch) -0.117334 (yaw) 
----------------------------------------------------- 
step 50, time 0.040000, maxvel 3.000000, total vol 183256, vol(u>maxvel) 183255, cell count 39679210
bounding box (containing cells with vel>maxvel): xmin -37.5001 -17.7002 -0.500321, xmax 116.7 17.7002 32.1096m 
bounding box of vehicle: xmin -12.2 -1.3 -4.15385e-18, xmax 4.47233e-18 1.3 3.6m 
gts area: 163.427 
yplus max: 78.8295, yplus min: 0.0786023 
position of yplus max: -12.163 -1.19591 0.162214 
yplus prom: 3.55704 
forces: 2894.241064 0.018273 -861.910628 
Drag coefficient: 0.807742 
Lateral coefficient: 0.000005 
Lift coefficient: -0.240547 
torque (ref. CG): -0.025582 (roll) -1205.717344 (pitch) -0.111462 (yaw) 
----------------------------------------------------- 
step 51, time 0.040800, maxvel 3.000000, total vol 183256, vol(u>maxvel) 183255, cell count 39682147
bounding box (containing cells with vel>maxvel): xmin -37.5001 -17.7002 -0.500321, xmax 116.7 17.7002 32.1096m 
bounding box of vehicle: xmin -12.2 -1.3 -4.15385e-18, xmax 4.47233e-18 1.3 3.6m 
gts area: 163.427 
yplus max: 78.8249, yplus min: 0.0775626 
position of yplus max: -12.163 -1.19591 0.162214 
yplus prom: 3.55623 
forces: 2883.173589 0.019859 -861.587886 
Drag coefficient: 0.804653 
Lateral coefficient: 0.000006 
Lift coefficient: -0.240457 
torque (ref. CG): -0.027803 (roll) -1219.243081 (pitch) -0.121140 (yaw) 
----------------------------------------------------- 
step 52, time 0.041600, maxvel 3.000000, total vol 183256, vol(u>maxvel) 183255, cell count 39684925
bounding box (containing cells with vel>maxvel): xmin -37.5001 -17.7002 -0.500321, xmax 116.7 17.7002 32.1096m 
bounding box of vehicle: xmin -12.2 -1.3 -4.15385e-18, xmax 4.47233e-18 1.3 3.6m 
gts area: 163.427 
yplus max: 78.8205, yplus min: 0.076536 
position of yplus max: -12.163 -1.19591 0.162214 
yplus prom: 3.55514 
forces: 2872.204854 0.018097 -861.275360 
Drag coefficient: 0.801592 
Lateral coefficient: 0.000005 
Lift coefficient: -0.240370 
torque (ref. CG): -0.025335 (roll) -1232.692900 (pitch) -0.110390 (yaw) 
----------------------------------------------------- 
step 53, time 0.042400, maxvel 3.000000, total vol 183256, vol(u>maxvel) 183255, cell count 39687768
bounding box (containing cells with vel>maxvel): xmin -37.5001 -17.7002 -0.500321, xmax 116.7 17.7002 32.1096m 
bounding box of vehicle: xmin -12.2 -1.3 -4.15385e-18, xmax 4.47233e-18 1.3 3.6m 
gts area: 163.427 
yplus max: 78.8165, yplus min: 0.0755264 
position of yplus max: -12.163 -1.19591 0.162214 
yplus prom: 3.55385 
forces: 2861.349489 0.018135 -860.953174 
Drag coefficient: 0.798562 
Lateral coefficient: 0.000005 
Lift coefficient: -0.240280 
torque (ref. CG): -0.025389 (roll) -1245.925076 (pitch) -0.110622 (yaw) 
----------------------------------------------------- 
step 54, time 0.043200, maxvel 3.000000, total vol 183256, vol(u>maxvel) 183255, cell count 39690790
bounding box (containing cells with vel>maxvel): xmin -37.5001 -17.7002 -0.500321, xmax 116.7 17.7002 32.1096m 
bounding box of vehicle: xmin -12.2 -1.3 -4.15385e-18, xmax 4.47233e-18 1.3 3.6m 
gts area: 163.427 
yplus max: 78.8127, yplus min: 0.0745368 
position of yplus max: -12.163 -1.19591 0.162214 
yplus prom: 3.55238 
forces: 2850.587544 0.017563 -860.623711 
Drag coefficient: 0.795558 
Lateral coefficient: 0.000005 
Lift coefficient: -0.240188 
torque (ref. CG): -0.024588 (roll) -1258.982076 (pitch) -0.107132 (yaw) 
----------------------------------------------------- 
step 55, time 0.044000, maxvel 3.000000, total vol 183256, vol(u>maxvel) 183255, cell count 39693973
bounding box (containing cells with vel>maxvel): xmin -37.5001 -17.7002 -0.500321, xmax 116.7 17.7002 32.1096m 
bounding box of vehicle: xmin -12.2 -1.3 -4.15385e-18, xmax 4.47233e-18 1.3 3.6m 
gts area: 163.427 
yplus max: 78.8091, yplus min: 0.0735707 
position of yplus max: -12.163 -1.19591 0.162214 
yplus prom: 3.55079 
forces: 2840.074396 0.017268 -860.237699 
Drag coefficient: 0.792624 
Lateral coefficient: 0.000005 
Lift coefficient: -0.240080 
torque (ref. CG): -0.024175 (roll) -1271.345808 (pitch) -0.105336 (yaw) 
----------------------------------------------------- 
step 56, time 0.044800, maxvel 3.000000, total vol 183256, vol(u>maxvel) 183255, cell count 39697619
bounding box (containing cells with vel>maxvel): xmin -37.5001 -17.7002 -0.500321, xmax 116.7 17.7002 32.1096m 
bounding box of vehicle: xmin -12.2 -1.3 -4.15385e-18, xmax 4.47233e-18 1.3 3.6m 
gts area: 163.427 
yplus max: 78.8058, yplus min: 0.0726324 
position of yplus max: -12.163 -1.19591 0.162214 
yplus prom: 3.5491 
forces: 2829.820812 0.017746 -859.794675 
Drag coefficient: 0.789763 
Lateral coefficient: 0.000005 
Lift coefficient: -0.239956 
torque (ref. CG): -0.024844 (roll) -1282.998379 (pitch) -0.108248 (yaw) 
----------------------------------------------------- 
step 57, time 0.045600, maxvel 3.000000, total vol 183256, vol(u>maxvel) 183255, cell count 39701078
bounding box (containing cells with vel>maxvel): xmin -37.5001 -17.7002 -0.500321, xmax 116.7 17.7002 32.1096m 
bounding box of vehicle: xmin -12.2 -1.3 -4.15385e-18, xmax 4.47233e-18 1.3 3.6m 
gts area: 163.427 
yplus max: 78.8026, yplus min: 0.0717269 
position of yplus max: -12.163 -1.19591 0.162214 
yplus prom: 3.54735 
forces: 2819.687371 0.016112 -859.346922 
Drag coefficient: 0.786935 
Lateral coefficient: 0.000004 
Lift coefficient: -0.239832 
torque (ref. CG): -0.022557 (roll) -1294.453902 (pitch) -0.098285 (yaw) 
----------------------------------------------------- 
step 58, time 0.046400, maxvel 3.000000, total vol 183256, vol(u>maxvel) 183255, cell count 39704162
bounding box (containing cells with vel>maxvel): xmin -37.5001 -17.7002 -0.500321, xmax 116.7 17.7002 32.1096m 
bounding box of vehicle: xmin -12.2 -1.3 -4.15385e-18, xmax 4.47233e-18 1.3 3.6m 
gts area: 163.427 
yplus max: 78.7996, yplus min: 0.0513921 
position of yplus max: -12.163 -1.19591 0.162214 
yplus prom: 3.54557 
forces: 2809.675744 0.016683 -858.840818 
Drag coefficient: 0.784141 
Lateral coefficient: 0.000005 
Lift coefficient: -0.239690 
torque (ref. CG): -0.023356 (roll) -1305.382948 (pitch) -0.101767 (yaw) 
----------------------------------------------------- 
step 59, time 0.047200, maxvel 3.000000, total vol 183256, vol(u>maxvel) 183255, cell count 39707590
bounding box (containing cells with vel>maxvel): xmin -37.5001 -17.7002 -0.500321, xmax 116.7 17.7002 32.1096m 
bounding box of vehicle: xmin -12.2 -1.3 -4.15385e-18, xmax 4.47233e-18 1.3 3.6m 
gts area: 163.427 
yplus max: 78.7968, yplus min: 0.0700352 
position of yplus max: -12.163 -1.19591 0.162214 
yplus prom: 3.54374 
forces: 2799.825768 0.014453 -858.336490 
Drag coefficient: 0.781392 
Lateral coefficient: 0.000004 
Lift coefficient: -0.239550 
torque (ref. CG): -0.020234 (roll) -1316.096514 (pitch) -0.088162 (yaw) 
----------------------------------------------------- 
step 60, time 0.048000, maxvel 3.000000, total vol 183256, vol(u>maxvel) 183255, cell count 39711132
bounding box (containing cells with vel>maxvel): xmin -37.5001 -17.7002 -0.500321, xmax 116.7 17.7002 32.1096m 
bounding box of vehicle: xmin -12.2 -1.3 -4.15385e-18, xmax 4.47233e-18 1.3 3.6m 
gts area: 163.427 
yplus max: 78.7941, yplus min: 0.0692615 
position of yplus max: -12.163 -1.19591 0.162214 
yplus prom: 3.54188 
forces: 2790.166581 0.016729 -857.798207 
Drag coefficient: 0.778696 
Lateral coefficient: 0.000005 
Lift coefficient: -0.239399 
torque (ref. CG): -0.023420 (roll) -1326.335847 (pitch) -0.102046 (yaw) 
----------------------------------------------------- 
step 61, time 0.048800, maxvel 3.000000, total vol 183256, vol(u>maxvel) 183255, cell count 39714316
bounding box (containing cells with vel>maxvel): xmin -37.5001 -17.7002 -0.500321, xmax 116.7 17.7002 32.1096m 
bounding box of vehicle: xmin -12.2 -1.3 -4.15385e-18, xmax 4.47233e-18 1.3 3.6m 
gts area: 163.427 
yplus max: 78.7915, yplus min: 0.068544 
position of yplus max: -12.163 -1.19591 0.162214 
yplus prom: 3.53999 
forces: 2780.678353 0.014695 -857.265535 
Drag coefficient: 0.776048 
Lateral coefficient: 0.000004 
Lift coefficient: -0.239251 
torque (ref. CG): -0.020573 (roll) -1336.370071 (pitch) -0.089640 (yaw) 
----------------------------------------------------- 
step 62, time 0.049600, maxvel 3.000000, total vol 183256, vol(u>maxvel) 183255, cell count 39717410
bounding box (containing cells with vel>maxvel): xmin -37.5001 -17.7002 -0.500321, xmax 116.7 17.7002 32.1096m 
bounding box of vehicle: xmin -12.2 -1.3 -4.15385e-18, xmax 4.47233e-18 1.3 3.6m 
gts area: 163.427 
yplus max: 78.7891, yplus min: 0.0347779 
position of yplus max: -12.163 -1.19591 0.162214 
yplus prom: 3.53808 
forces: 2771.257823 0.014832 -856.717818 
Drag coefficient: 0.773419 
Lateral coefficient: 0.000004 
Lift coefficient: -0.239098 
torque (ref. CG): -0.020764 (roll) -1346.217736 (pitch) -0.090472 (yaw) 
----------------------------------------------------- 
step 63, time 0.050400, maxvel 3.000000, total vol 183256, vol(u>maxvel) 183255, cell count 39720814
bounding box (containing cells with vel>maxvel): xmin -37.5001 -17.7002 -0.500321, xmax 116.7 17.7002 32.1096m 
bounding box of vehicle: xmin -12.2 -1.3 -4.15385e-18, xmax 4.47233e-18 1.3 3.6m 
gts area: 163.427 
yplus max: 78.7868, yplus min: 0.0673076 
position of yplus max: -12.163 -1.19591 0.162214 
yplus prom: 3.53613 
forces: 2761.917644 0.013342 -856.150374 
Drag coefficient: 0.770812 
Lateral coefficient: 0.000004 
Lift coefficient: -0.238939 
torque (ref. CG): -0.018679 (roll) -1355.832581 (pitch) -0.081386 (yaw) 
----------------------------------------------------- 
step 64, time 0.051200, maxvel 3.000000, total vol 183256, vol(u>maxvel) 183255, cell count 39724425
bounding box (containing cells with vel>maxvel): xmin -37.5001 -17.7002 -0.500321, xmax 116.7 17.7002 32.1096m 
bounding box of vehicle: xmin -12.2 -1.3 -4.15385e-18, xmax 4.47233e-18 1.3 3.6m 
gts area: 163.427 
yplus max: 78.7846, yplus min: 0.0668022 
position of yplus max: -12.163 -1.19591 0.162214 
yplus prom: 3.53415 
forces: 2752.730456 0.013676 -855.598124 
Drag coefficient: 0.768248 
Lateral coefficient: 0.000004 
Lift coefficient: -0.238785 
torque (ref. CG): -0.019146 (roll) -1365.325917 (pitch) -0.083422 (yaw) 
----------------------------------------------------- 
step 65, time 0.052000, maxvel 3.000000, total vol 183256, vol(u>maxvel) 183255, cell count 39728080
bounding box (containing cells with vel>maxvel): xmin -37.5001 -17.7002 -0.500321, xmax 116.7 17.7002 32.1096m 
bounding box of vehicle: xmin -12.2 -1.3 -4.15385e-18, xmax 4.47233e-18 1.3 3.6m 
gts area: 163.427 
yplus max: 78.7825, yplus min: 0.0663809 
position of yplus max: -12.163 -1.19591 0.162214 
yplus prom: 3.53211 
forces: 2743.656035 0.011579 -855.022923 
Drag coefficient: 0.765715 
Lateral coefficient: 0.000003 
Lift coefficient: -0.238625 
torque (ref. CG): -0.016211 (roll) -1374.521382 (pitch) -0.070634 (yaw) 
----------------------------------------------------- 
step 66, time 0.052800, maxvel 3.000000, total vol 183256, vol(u>maxvel) 183255, cell count 39731062
bounding box (containing cells with vel>maxvel): xmin -37.5001 -17.7002 -0.500321, xmax 116.7 17.7002 32.1096m 
bounding box of vehicle: xmin -12.2 -1.3 -4.15385e-18, xmax 4.47233e-18 1.3 3.6m 
gts area: 163.427 
yplus max: 78.7804, yplus min: 0.0660512 
position of yplus max: -12.163 -1.19591 0.162214 
yplus prom: 3.53003 
forces: 2734.772513 0.012343 -854.416561 
Drag coefficient: 0.763236 
Lateral coefficient: 0.000003 
Lift coefficient: -0.238456 
torque (ref. CG): -0.017280 (roll) -1383.259504 (pitch) -0.075290 (yaw) 
----------------------------------------------------- 
step 67, time 0.053600, maxvel 3.000000, total vol 183256, vol(u>maxvel) 183255, cell count 39734449
bounding box (containing cells with vel>maxvel): xmin -37.5001 -17.7002 -0.500321, xmax 116.7 17.7002 32.1096m 
bounding box of vehicle: xmin -12.2 -1.3 -4.15385e-18, xmax 4.47233e-18 1.3 3.6m 
gts area: 163.427 
yplus max: 78.7785, yplus min: 0.0658165 
position of yplus max: -12.163 -1.19591 0.162214 
yplus prom: 3.52789 
forces: 2725.957570 0.011738 -853.803693 
Drag coefficient: 0.760776 
Lateral coefficient: 0.000003 
Lift coefficient: -0.238284 
torque (ref. CG): -0.016433 (roll) -1391.861930 (pitch) -0.071603 (yaw) 
----------------------------------------------------- 
step 68, time 0.054400, maxvel 3.000000, total vol 183256, vol(u>maxvel) 183255, cell count 39737891
bounding box (containing cells with vel>maxvel): xmin -37.5001 -17.7002 -0.500321, xmax 116.7 17.7002 32.1096m 
bounding box of vehicle: xmin -12.2 -1.3 -4.15385e-18, xmax 4.47233e-18 1.3 3.6m 
gts area: 163.427 
yplus max: 78.7766, yplus min: 0.0656821 
position of yplus max: -12.163 -1.19591 0.162214 
yplus prom: 3.52569 
forces: 2717.246500 0.009132 -853.200175 
Drag coefficient: 0.758345 
Lateral coefficient: 0.000003 
Lift coefficient: -0.238116 
torque (ref. CG): -0.012785 (roll) -1400.375970 (pitch) -0.055706 (yaw) 
----------------------------------------------------- 
step 69, time 0.055200, maxvel 3.000000, total vol 183256, vol(u>maxvel) 183255, cell count 39741053
bounding box (containing cells with vel>maxvel): xmin -37.5001 -17.7002 -0.500321, xmax 116.7 17.7002 32.1096m 
bounding box of vehicle: xmin -12.2 -1.3 -4.15385e-18, xmax 4.47233e-18 1.3 3.6m 
gts area: 163.427 
yplus max: 78.7748, yplus min: 0.0656529 
position of yplus max: -12.163 -1.19591 0.162214 
yplus prom: 3.52341 
forces: 2708.645784 0.010666 -852.563023 
Drag coefficient: 0.755945 
Lateral coefficient: 0.000003 
Lift coefficient: -0.237938 
torque (ref. CG): -0.014932 (roll) -1408.530344 (pitch) -0.065061 (yaw) 
----------------------------------------------------- 
step 70, time 0.056000, maxvel 3.000000, total vol 183256, vol(u>maxvel) 183255, cell count 39743858
bounding box (containing cells with vel>maxvel): xmin -37.5001 -17.7002 -0.500321, xmax 116.7 17.7002 32.1096m 
bounding box of vehicle: xmin -12.2 -1.3 -4.15385e-18, xmax 4.47233e-18 1.3 3.6m 
gts area: 163.427 
yplus max: 78.7731, yplus min: 0.0657261 
position of yplus max: -12.163 -1.19591 0.162214 
yplus prom: 3.52106 
forces: 2700.192744 0.006803 -851.963798 
Drag coefficient: 0.753585 
Lateral coefficient: 0.000002 
Lift coefficient: -0.237771 
torque (ref. CG): -0.009524 (roll) -1416.709324 (pitch) -0.041498 (yaw) 
----------------------------------------------------- 
step 71, time 0.056800, maxvel 3.000000, total vol 183256, vol(u>maxvel) 183255, cell count 39746400
bounding box (containing cells with vel>maxvel): xmin -37.5001 -17.7002 -0.500321, xmax 116.7 17.7002 32.1096m 
bounding box of vehicle: xmin -12.2 -1.3 -4.15385e-18, xmax 4.47233e-18 1.3 3.6m 
gts area: 163.427 
yplus max: 78.7714, yplus min: 0.0659082 
position of yplus max: -12.163 -1.19591 0.162214 
yplus prom: 3.51864 
forces: 2691.865009 0.008825 -851.331097 
Drag coefficient: 0.751261 
Lateral coefficient: 0.000002 
Lift coefficient: -0.237594 
torque (ref. CG): -0.012356 (roll) -1424.508681 (pitch) -0.053835 (yaw) 
----------------------------------------------------- 
step 72, time 0.057600, maxvel 3.000000, total vol 183256, vol(u>maxvel) 183255, cell count 39749271
bounding box (containing cells with vel>maxvel): xmin -37.5001 -17.7002 -0.500321, xmax 116.7 17.7002 32.1096m 
bounding box of vehicle: xmin -12.2 -1.3 -4.15385e-18, xmax 4.47233e-18 1.3 3.6m 
gts area: 163.427 
yplus max: 78.7698, yplus min: 0.0661919 
position of yplus max: -12.163 -1.19591 0.162214 
yplus prom: 3.51616 
forces: 2683.645499 0.006333 -850.734819 
Drag coefficient: 0.748967 
Lateral coefficient: 0.000002 
Lift coefficient: -0.237428 
torque (ref. CG): -0.008866 (roll) -1432.378696 (pitch) -0.038629 (yaw) 
----------------------------------------------------- 
step 73, time 0.058400, maxvel 3.000000, total vol 183256, vol(u>maxvel) 183255, cell count 39752047
bounding box (containing cells with vel>maxvel): xmin -37.5001 -17.7002 -0.500321, xmax 116.7 17.7002 32.1096m 
bounding box of vehicle: xmin -12.2 -1.3 -4.15385e-18, xmax 4.47233e-18 1.3 3.6m 
gts area: 163.427 
yplus max: 78.7683, yplus min: 0.0665578 
position of yplus max: -12.163 -1.19591 0.162214 
yplus prom: 3.51362 
forces: 2675.536207 0.005581 -850.138626 
Drag coefficient: 0.746704 
Lateral coefficient: 0.000002 
Lift coefficient: -0.237262 
torque (ref. CG): -0.007813 (roll) -1440.094926 (pitch) -0.034042 (yaw) 
----------------------------------------------------- 
step 74, time 0.059200, maxvel 3.000000, total vol 183256, vol(u>maxvel) 183255, cell count 39755140
bounding box (containing cells with vel>maxvel): xmin -37.5001 -17.7002 -0.500321, xmax 116.7 17.7002 32.1096m 
bounding box of vehicle: xmin -12.2 -1.3 -4.15385e-18, xmax 4.47233e-18 1.3 3.6m 
gts area: 163.427 
yplus max: 78.7668, yplus min: 0.0669977 
position of yplus max: -12.163 -1.19591 0.162214 
yplus prom: 3.51103 
forces: 2667.528908 0.007423 -849.522485 
Drag coefficient: 0.744469 
Lateral coefficient: 0.000002 
Lift coefficient: -0.237090 
torque (ref. CG): -0.010393 (roll) -1447.546688 (pitch) -0.045282 (yaw) 
----------------------------------------------------- 
step 75, time 0.060000, maxvel 3.000000, total vol 183256, vol(u>maxvel) 183255, cell count 39757401
bounding box (containing cells with vel>maxvel): xmin -37.5001 -17.7002 -0.500321, xmax 116.7 17.7002 32.1096m 
bounding box of vehicle: xmin -12.2 -1.3 -4.15385e-18, xmax 4.47233e-18 1.3 3.6m 
gts area: 163.427 
yplus max: 78.7653, yplus min: 0.0675264 
position of yplus max: -12.163 -1.19591 0.162214 
yplus prom: 3.5084 
forces: 2659.626452 0.004191 -848.926618 
Drag coefficient: 0.742264 
Lateral coefficient: 0.000001 
Lift coefficient: -0.236923 
torque (ref. CG): -0.005868 (roll) -1454.975333 (pitch) -0.025566 (yaw) 
----------------------------------------------------- 
step 76, time 0.060800, maxvel 3.000000, total vol 183256, vol(u>maxvel) 183255, cell count 39759856
bounding box (containing cells with vel>maxvel): xmin -37.5001 -17.7002 -0.500321, xmax 116.7 17.7002 32.1096m 
bounding box of vehicle: xmin -12.2 -1.3 -4.15385e-18, xmax 4.47233e-18 1.3 3.6m 
gts area: 163.427 
yplus max: 78.7639, yplus min: 0.0681449 
position of yplus max: -12.163 -1.19591 0.162214 
yplus prom: 3.50574 
forces: 2651.807891 0.006594 -848.295732 
Drag coefficient: 0.740082 
Lateral coefficient: 0.000002 
Lift coefficient: -0.236747 
torque (ref. CG): -0.009232 (roll) -1462.072919 (pitch) -0.040226 (yaw) 
----------------------------------------------------- 
step 77, time 0.061600, maxvel 3.000000, total vol 183256, vol(u>maxvel) 183255, cell count 39762518
bounding box (containing cells with vel>maxvel): xmin -37.5001 -17.7002 -0.500321, xmax 116.7 17.7002 32.1096m 
bounding box of vehicle: xmin -12.2 -1.3 -4.15385e-18, xmax 4.47233e-18 1.3 3.6m 
gts area: 163.427 
yplus max: 78.7625, yplus min: 0.0688408 
position of yplus max: -12.163 -1.19591 0.162214 
yplus prom: 3.50306 
forces: 2644.110977 0.003423 -847.692611 
Drag coefficient: 0.737934 
Lateral coefficient: 0.000001 
Lift coefficient: -0.236579 
torque (ref. CG): -0.004792 (roll) -1469.169561 (pitch) -0.020880 (yaw) 
----------------------------------------------------- 
step 78, time 0.062400, maxvel 3.000000, total vol 183256, vol(u>maxvel) 183255, cell count 39765234
bounding box (containing cells with vel>maxvel): xmin -37.5001 -17.7002 -0.500321, xmax 116.7 17.7002 32.1096m 
bounding box of vehicle: xmin -12.2 -1.3 -4.15385e-18, xmax 4.47233e-18 1.3 3.6m 
gts area: 163.427 
yplus max: 78.7612, yplus min: 0.0696113 
position of yplus max: -12.163 -1.19591 0.162214 
yplus prom: 3.50038 
forces: 2636.513540 0.001967 -847.079836 
Drag coefficient: 0.735813 
Lateral coefficient: 0.000001 
Lift coefficient: -0.236408 
torque (ref. CG): -0.002753 (roll) -1476.068043 (pitch) -0.011997 (yaw) 
----------------------------------------------------- 
step 79, time 0.063200, maxvel 3.000000, total vol 183256, vol(u>maxvel) 183255, cell count 39767846
bounding box (containing cells with vel>maxvel): xmin -37.5001 -17.7002 -0.500321, xmax 116.7 17.7002 32.1096m 
bounding box of vehicle: xmin -12.2 -1.3 -4.15385e-18, xmax 4.47233e-18 1.3 3.6m 
gts area: 163.427 
yplus max: 78.7599, yplus min: 0.0704489 
position of yplus max: -12.163 -1.19591 0.162214 
yplus prom: 3.49769 
forces: 2628.978359 0.001123 -846.448121 
Drag coefficient: 0.733710 
Lateral coefficient: 0.000000 
Lift coefficient: -0.236232 
torque (ref. CG): -0.001572 (roll) -1482.763834 (pitch) -0.006849 (yaw) 
----------------------------------------------------- 
step 80, time 0.064000, maxvel 3.000000, total vol 183256, vol(u>maxvel) 183255, cell count 39770086
bounding box (containing cells with vel>maxvel): xmin -37.5001 -17.7002 -0.500321, xmax 116.7 17.7002 32.1096m 
bounding box of vehicle: xmin -12.2 -1.3 -4.15385e-18, xmax 4.47233e-18 1.3 3.6m 
gts area: 163.427 
yplus max: 78.7587, yplus min: 0.0713458 
position of yplus max: -12.163 -1.19591 0.162214 
yplus prom: 3.495 
forces: 2621.524272 0.000117 -845.819428 
Drag coefficient: 0.731630 
Lateral coefficient: 0.000000 
Lift coefficient: -0.236056 
torque (ref. CG): -0.000163 (roll) -1489.364533 (pitch) -0.000712 (yaw) 
----------------------------------------------------- 
step 81, time 0.064800, maxvel 3.000000, total vol 183256, vol(u>maxvel) 183255, cell count 39772153
bounding box (containing cells with vel>maxvel): xmin -37.5001 -17.7002 -0.500321, xmax 116.7 17.7002 32.1096m 
bounding box of vehicle: xmin -12.2 -1.3 -4.15385e-18, xmax 4.47233e-18 1.3 3.6m 
gts area: 163.427 
yplus max: 78.7574, yplus min: 0.072296 
position of yplus max: -12.163 -1.19591 0.162214 
yplus prom: 3.49231 
forces: 2614.130486 -0.001398 -845.188498 
Drag coefficient: 0.729567 
Lateral coefficient: -0.000000 
Lift coefficient: -0.235880 
torque (ref. CG): 0.001957 (roll) -1495.867159 (pitch) 0.008527 (yaw) 
----------------------------------------------------- 
step 82, time 0.065600, maxvel 3.000000, total vol 183256, vol(u>maxvel) 183255, cell count 39774594
bounding box (containing cells with vel>maxvel): xmin -37.5001 -17.7002 -0.500321, xmax 116.7 17.7002 32.1096m 
bounding box of vehicle: xmin -12.2 -1.3 -4.15385e-18, xmax 4.47233e-18 1.3 3.6m 
gts area: 163.427 
yplus max: 78.7562, yplus min: 0.0732935 
position of yplus max: -12.163 -1.19591 0.162214 
yplus prom: 3.48963 
forces: 2606.812537 -0.001597 -844.543396 
Drag coefficient: 0.727524 
Lateral coefficient: -0.000000 
Lift coefficient: -0.235700 
torque (ref. CG): 0.002236 (roll) -1502.177164 (pitch) 0.009741 (yaw) 
----------------------------------------------------- 
step 83, time 0.066400, maxvel 3.000000, total vol 183256, vol(u>maxvel) 183255, cell count 39776965
bounding box (containing cells with vel>maxvel): xmin -37.5001 -17.7002 -0.500321, xmax 116.7 17.7002 32.1096m 
bounding box of vehicle: xmin -12.2 -1.3 -4.15385e-18, xmax 4.47233e-18 1.3 3.6m 
gts area: 163.427 
yplus max: 78.7551, yplus min: 0.0743313 
position of yplus max: -12.163 -1.19591 0.162214 
yplus prom: 3.48696 
forces: 2599.566655 -0.003363 -843.898224 
Drag coefficient: 0.725502 
Lateral coefficient: -0.000001 
Lift coefficient: -0.235520 
torque (ref. CG): 0.004708 (roll) -1508.385849 (pitch) 0.020513 (yaw) 
----------------------------------------------------- 
step 84, time 0.067200, maxvel 3.000000, total vol 183256, vol(u>maxvel) 183255, cell count 39778822
bounding box (containing cells with vel>maxvel): xmin -37.5001 -17.7002 -0.500321, xmax 116.7 17.7002 32.1096m 
bounding box of vehicle: xmin -12.2 -1.3 -4.15385e-18, xmax 4.47233e-18 1.3 3.6m 
gts area: 163.427 
yplus max: 78.7539, yplus min: 0.0754046 
position of yplus max: -12.163 -1.19591 0.162214 
yplus prom: 3.48431 
forces: 2592.388032 -0.004496 -843.243206 
Drag coefficient: 0.723499 
Lateral coefficient: -0.000001 
Lift coefficient: -0.235337 
torque (ref. CG): 0.006294 (roll) -1514.440311 (pitch) 0.027425 (yaw) 
----------------------------------------------------- 
step 85, time 0.068000, maxvel 3.000000, total vol 183256, vol(u>maxvel) 183255, cell count 39780841
bounding box (containing cells with vel>maxvel): xmin -37.5001 -17.7002 -0.500321, xmax 116.7 17.7002 32.1096m 
bounding box of vehicle: xmin -12.2 -1.3 -4.15385e-18, xmax 4.47233e-18 1.3 3.6m 
gts area: 163.427 
yplus max: 78.7528, yplus min: 0.076509 
position of yplus max: -12.163 -1.19591 0.162214 
yplus prom: 3.48167 
forces: 2585.296013 -0.003226 -842.573188 
Drag coefficient: 0.721519 
Lateral coefficient: -0.000001 
Lift coefficient: -0.235150 
torque (ref. CG): 0.004517 (roll) -1520.282031 (pitch) 0.019680 (yaw) 
----------------------------------------------------- 
step 86, time 0.068800, maxvel 3.000000, total vol 183256, vol(u>maxvel) 183255, cell count 39782771
bounding box (containing cells with vel>maxvel): xmin -37.5001 -17.7002 -0.500321, xmax 116.7 17.7002 32.1096m 
bounding box of vehicle: xmin -12.2 -1.3 -4.15385e-18, xmax 4.47233e-18 1.3 3.6m 
gts area: 163.427 
yplus max: 78.7517, yplus min: 0.0776375 
position of yplus max: -12.163 -1.19591 0.162214 
yplus prom: 3.47905 
forces: 2578.271706 -0.006435 -841.912188 
Drag coefficient: 0.719559 
Lateral coefficient: -0.000002 
Lift coefficient: -0.234966 
torque (ref. CG): 0.009010 (roll) -1526.083956 (pitch) 0.039256 (yaw) 
----------------------------------------------------- 
step 87, time 0.069600, maxvel 3.000000, total vol 183256, vol(u>maxvel) 183256, cell count 39784759
bounding box (containing cells with vel>maxvel): xmin -37.5001 -17.7002 -0.500321, xmax 116.7 17.7002 32.1096m 
bounding box of vehicle: xmin -12.2 -1.3 -4.15385e-18, xmax 4.47233e-18 1.3 3.6m 
gts area: 163.427 
yplus max: 78.7507, yplus min: 0.0312428 
position of yplus max: -12.163 -1.19591 0.162214 
yplus prom: 3.47644 
forces: 2571.303488 -0.005827 -841.240202 
Drag coefficient: 0.717614 
Lateral coefficient: -0.000002 
Lift coefficient: -0.234778 
torque (ref. CG): 0.008158 (roll) -1531.740345 (pitch) 0.035544 (yaw) 
----------------------------------------------------- 
step 88, time 0.070400, maxvel 3.000000, total vol 183256, vol(u>maxvel) 183256, cell count 39786825
bounding box (containing cells with vel>maxvel): xmin -37.5001 -17.7002 -0.500321, xmax 116.7 17.7002 32.1096m 
bounding box of vehicle: xmin -12.2 -1.3 -4.15385e-18, xmax 4.47233e-18 1.3 3.6m 
gts area: 163.427 
yplus max: 78.7496, yplus min: 0.0799567 
position of yplus max: -12.163 -1.19591 0.162214 
yplus prom: 3.47386 
forces: 2564.427249 -0.005514 -840.548931 
Drag coefficient: 0.715695 
Lateral coefficient: -0.000002 
Lift coefficient: -0.234585 
torque (ref. CG): 0.007720 (roll) -1537.150328 (pitch) 0.033636 (yaw) 
----------------------------------------------------- 
step 89, time 0.071200, maxvel 3.000000, total vol 183256, vol(u>maxvel) 183256, cell count 39788888
bounding box (containing cells with vel>maxvel): xmin -37.5001 -17.7002 -0.500321, xmax 116.7 17.7002 32.1096m 
bounding box of vehicle: xmin -12.2 -1.3 -4.15385e-18, xmax 4.47233e-18 1.3 3.6m 
gts area: 163.427 
yplus max: 78.7486, yplus min: 0.0811387 
position of yplus max: -12.163 -1.19591 0.162214 
yplus prom: 3.47129 
forces: 2557.618186 -0.005423 -839.865211 
Drag coefficient: 0.713795 
Lateral coefficient: -0.000002 
Lift coefficient: -0.234394 
torque (ref. CG): 0.007593 (roll) -1542.512325 (pitch) 0.033083 (yaw) 
----------------------------------------------------- 
step 90, time 0.072000, maxvel 3.000000, total vol 183256, vol(u>maxvel) 183256, cell count 39790618
bounding box (containing cells with vel>maxvel): xmin -37.5001 -17.7002 -0.500321, xmax 116.7 17.7002 32.1096m 
bounding box of vehicle: xmin -12.2 -1.3 -4.15385e-18, xmax 4.47233e-18 1.3 3.6m 
gts area: 163.427 
yplus max: 78.7476, yplus min: 0.0823324 
position of yplus max: -12.163 -1.19591 0.162214 
yplus prom: 3.46874 
forces: 2550.862059 -0.005109 -839.164680 
Drag coefficient: 0.711909 
Lateral coefficient: -0.000001 
Lift coefficient: -0.234199 
torque (ref. CG): 0.007153 (roll) -1547.697666 (pitch) 0.031168 (yaw) 
----------------------------------------------------- 
step 91, time 0.072800, maxvel 3.000000, total vol 183256, vol(u>maxvel) 183256, cell count 39791981
bounding box (containing cells with vel>maxvel): xmin -37.5001 -17.7002 -0.500321, xmax 116.7 17.7002 32.1096m 
bounding box of vehicle: xmin -12.2 -1.3 -4.15385e-18, xmax 4.47233e-18 1.3 3.6m 
gts area: 163.427 
yplus max: 78.7466, yplus min: 0.0821927 
position of yplus max: -12.163 -1.19591 0.162214 
yplus prom: 3.4662 
forces: 2544.170049 -0.006459 -838.463207 
Drag coefficient: 0.710042 
Lateral coefficient: -0.000002 
Lift coefficient: -0.234003 
torque (ref. CG): 0.009042 (roll) -1552.787492 (pitch) 0.039398 (yaw) 
----------------------------------------------------- 
step 92, time 0.073600, maxvel 3.000000, total vol 183256, vol(u>maxvel) 183256, cell count 39793726
bounding box (containing cells with vel>maxvel): xmin -37.5001 -17.7002 -0.500321, xmax 116.7 17.7002 32.1096m 
bounding box of vehicle: xmin -12.2 -1.3 -4.15385e-18, xmax 4.47233e-18 1.3 3.6m 
gts area: 163.427 
yplus max: 78.7457, yplus min: 0.0811481 
position of yplus max: -12.163 -1.19591 0.162214 
yplus prom: 3.46368 
forces: 2537.515452 -0.004833 -837.724760 
Drag coefficient: 0.708184 
Lateral coefficient: -0.000001 
Lift coefficient: -0.233797 
torque (ref. CG): 0.006766 (roll) -1557.599404 (pitch) 0.029480 (yaw) 
----------------------------------------------------- 
step 93, time 0.074400, maxvel 3.000000, total vol 183256, vol(u>maxvel) 183256, cell count 39795070
bounding box (containing cells with vel>maxvel): xmin -37.5001 -17.7002 -0.500321, xmax 116.7 17.7002 32.1096m 
bounding box of vehicle: xmin -12.2 -1.3 -4.15385e-18, xmax 4.47233e-18 1.3 3.6m 
gts area: 163.427 
yplus max: 78.7447, yplus min: 0.0803891 
position of yplus max: -12.163 -1.19591 0.162214 
yplus prom: 3.46117 
forces: 2530.935291 -0.006122 -836.982319 
Drag coefficient: 0.706348 
Lateral coefficient: -0.000002 
Lift coefficient: -0.233590 
torque (ref. CG): 0.008570 (roll) -1562.282736 (pitch) 0.037341 (yaw) 
----------------------------------------------------- 
step 94, time 0.075200, maxvel 3.000000, total vol 183256, vol(u>maxvel) 183256, cell count 39796385
bounding box (containing cells with vel>maxvel): xmin -37.5001 -17.7002 -0.500321, xmax 116.7 17.7002 32.1096m 
bounding box of vehicle: xmin -12.2 -1.3 -4.15385e-18, xmax 4.47233e-18 1.3 3.6m 
gts area: 163.427 
yplus max: 78.7438, yplus min: 0.07995 
position of yplus max: -12.163 -1.19591 0.162214 
yplus prom: 3.45868 
forces: 2524.410111 -0.004207 -836.225607 
Drag coefficient: 0.704527 
Lateral coefficient: -0.000001 
Lift coefficient: -0.233379 
torque (ref. CG): 0.005890 (roll) -1566.802047 (pitch) 0.025664 (yaw) 
----------------------------------------------------- 
step 95, time 0.076000, maxvel 3.000000, total vol 183256, vol(u>maxvel) 183256, cell count 39797679
bounding box (containing cells with vel>maxvel): xmin -37.5001 -17.7002 -0.500321, xmax 116.7 17.7002 32.1096m 
bounding box of vehicle: xmin -12.2 -1.3 -4.15385e-18, xmax 4.47233e-18 1.3 3.6m 
gts area: 163.427 
yplus max: 78.7429, yplus min: 0.0798484 
position of yplus max: -12.163 -1.19591 0.162214 
yplus prom: 3.4562 
forces: 2517.926614 -0.006065 -835.459483 
Drag coefficient: 0.702718 
Lateral coefficient: -0.000002 
Lift coefficient: -0.233165 
torque (ref. CG): 0.008491 (roll) -1571.205588 (pitch) 0.036997 (yaw) 
----------------------------------------------------- 
step 96, time 0.076800, maxvel 3.000000, total vol 183256, vol(u>maxvel) 183256, cell count 39798644
bounding box (containing cells with vel>maxvel): xmin -37.5001 -17.7002 -0.500321, xmax 116.7 17.7002 32.1096m 
bounding box of vehicle: xmin -12.2 -1.3 -4.15385e-18, xmax 4.47233e-18 1.3 3.6m 
gts area: 163.427 
yplus max: 78.742, yplus min: 0.0701107 
position of yplus max: -12.163 -1.19591 0.162214 
yplus prom: 3.45372 
forces: 2511.505979 -0.004904 -834.660466 
Drag coefficient: 0.700926 
Lateral coefficient: -0.000001 
Lift coefficient: -0.232942 
torque (ref. CG): 0.006866 (roll) -1575.320475 (pitch) 0.029914 (yaw) 
----------------------------------------------------- 
step 97, time 0.077600, maxvel 3.000000, total vol 183256, vol(u>maxvel) 183256, cell count 39799835
bounding box (containing cells with vel>maxvel): xmin -37.5001 -17.7002 -0.500321, xmax 116.7 17.7002 32.1096m 
bounding box of vehicle: xmin -12.2 -1.3 -4.15385e-18, xmax 4.47233e-18 1.3 3.6m 
gts area: 163.427 
yplus max: 78.7412, yplus min: 0.0759274 
position of yplus max: -12.163 -1.19591 0.162214 
yplus prom: 3.45127 
forces: 2505.140491 -0.005822 -833.859279 
Drag coefficient: 0.699149 
Lateral coefficient: -0.000002 
Lift coefficient: -0.232718 
torque (ref. CG): 0.008151 (roll) -1579.344913 (pitch) 0.035517 (yaw) 
----------------------------------------------------- 
step 98, time 0.078400, maxvel 3.000000, total vol 183256, vol(u>maxvel) 183256, cell count 39800965
bounding box (containing cells with vel>maxvel): xmin -37.5001 -17.7002 -0.500321, xmax 116.7 17.7002 32.1096m 
bounding box of vehicle: xmin -12.2 -1.3 -4.15385e-18, xmax 4.47233e-18 1.3 3.6m 
gts area: 163.427 
yplus max: 78.7403, yplus min: 0.0698964 
position of yplus max: -12.163 -1.19591 0.162214 
yplus prom: 3.44881 
forces: 2498.847764 -0.005317 -833.030039 
Drag coefficient: 0.697393 
Lateral coefficient: -0.000001 
Lift coefficient: -0.232487 
torque (ref. CG): 0.007444 (roll) -1583.096371 (pitch) 0.032435 (yaw) 
----------------------------------------------------- 
step 99, time 0.079200, maxvel 3.000000, total vol 183256, vol(u>maxvel) 183256, cell count 39801723
bounding box (containing cells with vel>maxvel): xmin -37.5001 -17.7002 -0.500321, xmax 116.7 17.7002 32.1096m 
bounding box of vehicle: xmin -12.2 -1.3 -4.15385e-18, xmax 4.47233e-18 1.3 3.6m 
gts area: 163.427 
yplus max: 78.7395, yplus min: 0.0717159 
position of yplus max: -12.163 -1.19591 0.162214 
yplus prom: 3.44637 
forces: 2492.614460 -0.005607 -832.184476 
Drag coefficient: 0.695653 
Lateral coefficient: -0.000002 
Lift coefficient: -0.232251 
torque (ref. CG): 0.007849 (roll) -1586.665059 (pitch) 0.034201 (yaw) 
----------------------------------------------------- 
step 100, time 0.080000, maxvel 3.000000, total vol 183256, vol(u>maxvel) 183256, cell count 39802569
bounding box (containing cells with vel>maxvel): xmin -37.5001 -17.7002 -0.500321, xmax 116.7 17.7002 32.1096m 
bounding box of vehicle: xmin -12.2 -1.3 -4.15385e-18, xmax 4.47233e-18 1.3 3.6m 
gts area: 163.427 
yplus max: 78.7387, yplus min: 0.0840539 
position of yplus max: -12.163 -1.19591 0.162214 
yplus prom: 3.44393 
forces: 2486.427442 -0.005705 -831.311781 
Drag coefficient: 0.693927 
Lateral coefficient: -0.000002 
Lift coefficient: -0.232007 
torque (ref. CG): 0.007987 (roll) -1590.003443 (pitch) 0.034802 (yaw) 
----------------------------------------------------- 
step 101, time 0.080800, maxvel 3.000000, total vol 183256, vol(u>maxvel) 183256, cell count 39803353
bounding box (containing cells with vel>maxvel): xmin -37.5001 -17.7002 -0.500321, xmax 116.7 17.7002 32.1096m 
bounding box of vehicle: xmin -12.2 -1.3 -4.15385e-18, xmax 4.47233e-18 1.3 3.6m 
gts area: 163.427 
yplus max: 78.7379, yplus min: 0.0856883 
position of yplus max: -12.163 -1.19591 0.162214 
yplus prom: 3.44151 
forces: 2480.307304 -0.006257 -830.436115 
Drag coefficient: 0.692219 
Lateral coefficient: -0.000002 
Lift coefficient: -0.231763 
torque (ref. CG): 0.008760 (roll) -1593.230078 (pitch) 0.038169 (yaw) 
----------------------------------------------------- 
step 102, time 0.081600, maxvel 3.000000, total vol 183256, vol(u>maxvel) 183256, cell count 39803400
bounding box (containing cells with vel>maxvel): xmin -37.5001 -17.7002 -0.500321, xmax 116.7 17.7002 32.1096m 
bounding box of vehicle: xmin -12.2 -1.3 -4.15385e-18, xmax 4.47233e-18 1.3 3.6m 
gts area: 163.427 
yplus max: 78.7371, yplus min: 0.0875181 
position of yplus max: -12.163 -1.19591 0.162214 
yplus prom: 3.43909 
forces: 2474.213827 -0.004908 -829.512809 
Drag coefficient: 0.690518 
Lateral coefficient: -0.000001 
Lift coefficient: -0.231505 
torque (ref. CG): 0.006871 (roll) -1596.128780 (pitch) 0.029938 (yaw) 
----------------------------------------------------- 
step 103, time 0.082400, maxvel 3.000000, total vol 183256, vol(u>maxvel) 183256, cell count 39803653
bounding box (containing cells with vel>maxvel): xmin -37.5001 -17.7002 -0.500321, xmax 116.7 17.7002 32.1096m 
bounding box of vehicle: xmin -12.2 -1.3 -4.15385e-18, xmax 4.47233e-18 1.3 3.6m 
gts area: 163.427 
yplus max: 78.7363, yplus min: 0.0895042 
position of yplus max: -12.163 -1.19591 0.162214 
yplus prom: 3.43667 
forces: 2468.183747 -0.005556 -828.594383 
Drag coefficient: 0.688835 
Lateral coefficient: -0.000002 
Lift coefficient: -0.231249 
torque (ref. CG): 0.007779 (roll) -1598.968490 (pitch) 0.033893 (yaw) 
----------------------------------------------------- 
step 104, time 0.083200, maxvel 3.000000, total vol 183256, vol(u>maxvel) 183256, cell count 39804150
bounding box (containing cells with vel>maxvel): xmin -37.5001 -17.7002 -0.500321, xmax 116.7 17.7002 32.1096m 
bounding box of vehicle: xmin -12.2 -1.3 -4.15385e-18, xmax 4.47233e-18 1.3 3.6m 
gts area: 163.427 
yplus max: 78.7355, yplus min: 0.0916152 
position of yplus max: -12.163 -1.19591 0.162214 
yplus prom: 3.43427 
forces: 2462.197519 -0.006975 -827.645243 
Drag coefficient: 0.687164 
Lateral coefficient: -0.000002 
Lift coefficient: -0.230984 
torque (ref. CG): 0.009766 (roll) -1601.559455 (pitch) 0.042550 (yaw) 
----------------------------------------------------- 
step 105, time 0.084000, maxvel 3.000000, total vol 183256, vol(u>maxvel) 183256, cell count 39804674
bounding box (containing cells with vel>maxvel): xmin -37.5001 -17.7002 -0.500321, xmax 116.7 17.7002 32.1096m 
bounding box of vehicle: xmin -12.2 -1.3 -4.15385e-18, xmax 4.47233e-18 1.3 3.6m 
gts area: 163.427 
yplus max: 78.7348, yplus min: 0.0938235 
position of yplus max: -12.163 -1.19591 0.162214 
yplus prom: 3.43187 
forces: 2456.259297 -0.007550 -826.676815 
Drag coefficient: 0.685507 
Lateral coefficient: -0.000002 
Lift coefficient: -0.230714 
torque (ref. CG): 0.010570 (roll) -1603.965556 (pitch) 0.046055 (yaw) 
----------------------------------------------------- 
step 106, time 0.084800, maxvel 3.000000, total vol 183256, vol(u>maxvel) 183256, cell count 39805068
bounding box (containing cells with vel>maxvel): xmin -37.5001 -17.7002 -0.500321, xmax 116.7 17.7002 32.1096m 
bounding box of vehicle: xmin -12.2 -1.3 -4.15385e-18, xmax 4.47233e-18 1.3 3.6m 
gts area: 163.427 
yplus max: 78.734, yplus min: 0.0961037 
position of yplus max: -12.163 -1.19591 0.162214 
yplus prom: 3.42947 
forces: 2450.357235 -0.008947 -825.682787 
Drag coefficient: 0.683860 
Lateral coefficient: -0.000002 
Lift coefficient: -0.230436 
torque (ref. CG): 0.012525 (roll) -1606.164870 (pitch) 0.054575 (yaw) 
----------------------------------------------------- 
step 107, time 0.085600, maxvel 3.000000, total vol 183256, vol(u>maxvel) 183256, cell count 39805402
bounding box (containing cells with vel>maxvel): xmin -37.5001 -17.7002 -0.500321, xmax 116.7 17.7002 32.1096m 
bounding box of vehicle: xmin -12.2 -1.3 -4.15385e-18, xmax 4.47233e-18 1.3 3.6m 
gts area: 163.427 
yplus max: 78.7333, yplus min: 0.0984376 
position of yplus max: -12.163 -1.19591 0.162214 
yplus prom: 3.42709 
forces: 2444.525196 -0.008171 -824.667583 
Drag coefficient: 0.682232 
Lateral coefficient: -0.000002 
Lift coefficient: -0.230153 
torque (ref. CG): 0.011440 (roll) -1608.136979 (pitch) 0.049845 (yaw) 
----------------------------------------------------- 
step 108, time 0.086400, maxvel 3.000000, total vol 183256, vol(u>maxvel) 183256, cell count 39805980
bounding box (containing cells with vel>maxvel): xmin -37.5001 -17.7002 -0.500321, xmax 116.7 17.7002 32.1096m 
bounding box of vehicle: xmin -12.2 -1.3 -4.15385e-18, xmax 4.47233e-18 1.3 3.6m 
gts area: 163.427 
yplus max: 78.7325, yplus min: 0.100806 
position of yplus max: -12.163 -1.19591 0.162214 
yplus prom: 3.42471 
forces: 2438.736388 -0.008682 -823.632291 
Drag coefficient: 0.680617 
Lateral coefficient: -0.000002 
Lift coefficient: -0.229864 
torque (ref. CG): 0.012154 (roll) -1609.926031 (pitch) 0.052957 (yaw) 
----------------------------------------------------- 
step 109, time 0.087200, maxvel 3.000000, total vol 183256, vol(u>maxvel) 183256, cell count 39806604
bounding box (containing cells with vel>maxvel): xmin -37.5001 -17.7002 -0.500321, xmax 116.7 17.7002 32.1096m 
bounding box of vehicle: xmin -12.2 -1.3 -4.15385e-18, xmax 4.47233e-18 1.3 3.6m 
gts area: 163.427 
yplus max: 78.7318, yplus min: 0.103197 
position of yplus max: -12.163 -1.19591 0.162214 
yplus prom: 3.42234 
forces: 2432.986527 -0.008812 -822.583906 
Drag coefficient: 0.679012 
Lateral coefficient: -0.000002 
Lift coefficient: -0.229571 
torque (ref. CG): 0.012336 (roll) -1611.580687 (pitch) 0.053752 (yaw) 
----------------------------------------------------- 
step 110, time 0.088000, maxvel 3.000000, total vol 183256, vol(u>maxvel) 183256, cell count 39807194
bounding box (containing cells with vel>maxvel): xmin -37.5001 -17.7002 -0.500321, xmax 116.7 17.7002 32.1096m 
bounding box of vehicle: xmin -12.2 -1.3 -4.15385e-18, xmax 4.47233e-18 1.3 3.6m 
gts area: 163.427 
yplus max: 78.7311, yplus min: 0.105597 
position of yplus max: -12.163 -1.19591 0.162214 
yplus prom: 3.41998 
forces: 2427.260528 -0.011759 -821.509225 
Drag coefficient: 0.677414 
Lateral coefficient: -0.000003 
Lift coefficient: -0.229272 
torque (ref. CG): 0.016462 (roll) -1613.041531 (pitch) 0.071728 (yaw) 
----------------------------------------------------- 
step 111, time 0.088800, maxvel 3.000000, total vol 183256, vol(u>maxvel) 183256, cell count 39807574
bounding box (containing cells with vel>maxvel): xmin -37.5001 -17.7002 -0.500321, xmax 116.7 17.7002 32.1096m 
bounding box of vehicle: xmin -12.2 -1.3 -4.15385e-18, xmax 4.47233e-18 1.3 3.6m 
gts area: 163.427 
yplus max: 78.7304, yplus min: 0.0766283 
position of yplus max: -12.163 -1.19591 0.162214 
yplus prom: 3.41763 
forces: 2421.597391 -0.010653 -820.410407 
Drag coefficient: 0.675833 
Lateral coefficient: -0.000003 
Lift coefficient: -0.228965 
torque (ref. CG): 0.014914 (roll) -1614.267138 (pitch) 0.064983 (yaw) 
----------------------------------------------------- 
step 112, time 0.089600, maxvel 3.000000, total vol 183256, vol(u>maxvel) 183256, cell count 39808100
bounding box (containing cells with vel>maxvel): xmin -37.5001 -17.7002 -0.500321, xmax 116.7 17.7002 32.1096m 
bounding box of vehicle: xmin -12.2 -1.3 -4.15385e-18, xmax 4.47233e-18 1.3 3.6m 
gts area: 163.427 
yplus max: 78.7298, yplus min: 0.104074 
position of yplus max: -12.163 -1.19591 0.162214 
yplus prom: 3.41529 
forces: 2415.975340 -0.010612 -819.291914 
Drag coefficient: 0.674264 
Lateral coefficient: -0.000003 
Lift coefficient: -0.228653 
torque (ref. CG): 0.014857 (roll) -1615.315197 (pitch) 0.064735 (yaw) 
----------------------------------------------------- 
step 113, time 0.090400, maxvel 3.000000, total vol 183256, vol(u>maxvel) 183256, cell count 39808624
bounding box (containing cells with vel>maxvel): xmin -37.5001 -17.7002 -0.500321, xmax 116.7 17.7002 32.1096m 
bounding box of vehicle: xmin -12.2 -1.3 -4.15385e-18, xmax 4.47233e-18 1.3 3.6m 
gts area: 163.427 
yplus max: 78.7291, yplus min: 0.102705 
position of yplus max: -12.163 -1.19591 0.162214 
yplus prom: 3.41296 
forces: 2410.368364 -0.012447 -818.154433 
Drag coefficient: 0.672700 
Lateral coefficient: -0.000003 
Lift coefficient: -0.228335 
torque (ref. CG): 0.017426 (roll) -1616.226333 (pitch) 0.075926 (yaw) 
----------------------------------------------------- 
step 114, time 0.091200, maxvel 3.000000, total vol 183256, vol(u>maxvel) 183256, cell count 39808930
bounding box (containing cells with vel>maxvel): xmin -37.5001 -17.7002 -0.500321, xmax 116.7 17.7002 32.1096m 
bounding box of vehicle: xmin -12.2 -1.3 -4.15385e-18, xmax 4.47233e-18 1.3 3.6m 
gts area: 163.427 
yplus max: 78.7284, yplus min: 0.101551 
position of yplus max: -12.163 -1.19591 0.162214 
yplus prom: 3.41064 
forces: 2404.820752 -0.011243 -816.993258 
Drag coefficient: 0.671151 
Lateral coefficient: -0.000003 
Lift coefficient: -0.228011 
torque (ref. CG): 0.015740 (roll) -1616.909820 (pitch) 0.068583 (yaw) 
----------------------------------------------------- 
step 115, time 0.092000, maxvel 3.000000, total vol 183256, vol(u>maxvel) 183256, cell count 39809452
bounding box (containing cells with vel>maxvel): xmin -37.5001 -17.7002 -0.500321, xmax 116.7 17.7002 32.1096m 
bounding box of vehicle: xmin -12.2 -1.3 -4.15385e-18, xmax 4.47233e-18 1.3 3.6m 
gts area: 163.427 
yplus max: 78.7278, yplus min: 0.100626 
position of yplus max: -12.163 -1.19591 0.162214 
yplus prom: 3.40833 
forces: 2399.287477 -0.014091 -815.812795 
Drag coefficient: 0.669607 
Lateral coefficient: -0.000004 
Lift coefficient: -0.227682 
[...]
bounding box of vehicle: xmin -12.2 -1.3 -4.15385e-18, xmax 4.47233e-18 1.3 3.6m 
gts area: 163.427 
yplus max: 78.575, yplus min: 0.0558388 
position of yplus max: -12.163 -1.19591 0.162214 
yplus prom: 2.85222 
forces: 1183.488211 -0.389900 -463.801150 
Drag coefficient: 0.330295 
Lateral coefficient: -0.000109 
Lift coefficient: -0.129440 
torque (ref. CG): 0.545861 (roll) -1172.303522 (pitch) 2.378392 (yaw) 
----------------------------------------------------- 
step 1120, time 0.896000, maxvel 3.000000, total vol 183256, vol(u>maxvel) 183252, cell count 38145867
bounding box (containing cells with vel>maxvel): xmin -37.5001 -17.7002 -0.500321, xmax 116.7 17.7002 32.1096m 
bounding box of vehicle: xmin -12.2 -1.3 -4.15385e-18, xmax 4.47233e-18 1.3 3.6m 
gts area: 163.427 
yplus max: 78.575, yplus min: 0.0718388 
position of yplus max: -12.163 -1.19591 0.162214 
yplus prom: 2.85225 
forces: 1183.318680 -0.388606 -463.609870 
Drag coefficient: 0.330247 
Lateral coefficient: -0.000108 
Lift coefficient: -0.129387 
torque (ref. CG): 0.544049 (roll) -1171.374059 (pitch) 2.370499 (yaw) 
----------------------------------------------------- 
step 1121, time 0.896800, maxvel 3.000000, total vol 183256, vol(u>maxvel) 183252, cell count 38147797
bounding box (containing cells with vel>maxvel): xmin -37.5001 -17.7002 -0.500321, xmax 116.7 17.7002 32.1096m 
bounding box of vehicle: xmin -12.2 -1.3 -4.15385e-18, xmax 4.47233e-18 1.3 3.6m 
gts area: 163.427 
yplus max: 78.575, yplus min: 0.0978539 
position of yplus max: -12.163 -1.19591 0.162214 
yplus prom: 2.85229 
forces: 1183.147056 -0.385662 -463.423064 
Drag coefficient: 0.330200 
Lateral coefficient: -0.000108 
Lift coefficient: -0.129335 
torque (ref. CG): 0.539927 (roll) -1170.474812 (pitch) 2.352540 (yaw) 
----------------------------------------------------- 
step 1122, time 0.897600, maxvel 3.000000, total vol 183256, vol(u>maxvel) 183252, cell count 38149694
bounding box (containing cells with vel>maxvel): xmin -37.5001 -17.7002 -0.500321, xmax 116.7 17.7002 32.1096m 
bounding box of vehicle: xmin -12.2 -1.3 -4.15385e-18, xmax 4.47233e-18 1.3 3.6m 
gts area: 163.427 
yplus max: 78.575, yplus min: 0.107129 
position of yplus max: -12.163 -1.19591 0.162214 
yplus prom: 2.85232 
forces: 1182.978601 -0.382619 -463.241873 
Drag coefficient: 0.330153 
Lateral coefficient: -0.000107 
Lift coefficient: -0.129284 
torque (ref. CG): 0.535666 (roll) -1169.605382 (pitch) 2.333975 (yaw) 
----------------------------------------------------- 
step 1123, time 0.898400, maxvel 3.000000, total vol 183256, vol(u>maxvel) 183252, cell count 38151556
bounding box (containing cells with vel>maxvel): xmin -37.5001 -17.7002 -0.500321, xmax 116.7 17.7002 32.1096m 
bounding box of vehicle: xmin -12.2 -1.3 -4.15385e-18, xmax 4.47233e-18 1.3 3.6m 
gts area: 163.427 
yplus max: 78.575, yplus min: 0.102008 
position of yplus max: -12.163 -1.19591 0.162214 
yplus prom: 2.85235 
forces: 1182.811446 -0.380248 -463.061029 
Drag coefficient: 0.330106 
Lateral coefficient: -0.000106 
Lift coefficient: -0.129234 
torque (ref. CG): 0.532348 (roll) -1168.736254 (pitch) 2.319515 (yaw) 
----------------------------------------------------- 
step 1124, time 0.899200, maxvel 3.000000, total vol 183256, vol(u>maxvel) 183252, cell count 38153332
bounding box (containing cells with vel>maxvel): xmin -37.5001 -17.7002 -0.500321, xmax 116.7 17.7002 32.1096m 
bounding box of vehicle: xmin -12.2 -1.3 -4.15385e-18, xmax 4.47233e-18 1.3 3.6m 
gts area: 163.427 
yplus max: 78.575, yplus min: 0.0970763 
position of yplus max: -12.163 -1.19591 0.162214 
yplus prom: 2.85239 
forces: 1182.648151 -0.379235 -462.877375 
Drag coefficient: 0.330060 
Lateral coefficient: -0.000106 
Lift coefficient: -0.129182 
torque (ref. CG): 0.530929 (roll) -1167.844574 (pitch) 2.313335 (yaw) 
----------------------------------------------------- 
step 1125, time 0.900000, maxvel 3.000000, total vol 183256, vol(u>maxvel) 183252, cell count 38155175
bounding box (containing cells with vel>maxvel): xmin -37.5001 -17.7002 -0.500321, xmax 116.7 17.7002 32.1096m 
bounding box of vehicle: xmin -12.2 -1.3 -4.15385e-18, xmax 4.47233e-18 1.3 3.6m 
gts area: 163.427 
yplus max: 78.575, yplus min: 0.0925759 
position of yplus max: -12.163 -1.19591 0.162214 
yplus prom: 2.85242 
forces: 1182.481997 -0.375241 -462.704618 
Drag coefficient: 0.330014 
Lateral coefficient: -0.000105 
Lift coefficient: -0.129134 
torque (ref. CG): 0.525338 (roll) -1167.023372 (pitch) 2.288973 (yaw) 
----------------------------------------------------- 
step 1126, time 0.900800, maxvel 3.000000, total vol 183256, vol(u>maxvel) 183252, cell count 38157031
bounding box (containing cells with vel>maxvel): xmin -37.5001 -17.7002 -0.500321, xmax 116.7 17.7002 32.1096m 
bounding box of vehicle: xmin -12.2 -1.3 -4.15385e-18, xmax 4.47233e-18 1.3 3.6m 
gts area: 163.427 
yplus max: 78.575, yplus min: 0.0888924 
position of yplus max: -12.163 -1.19591 0.162214 
yplus prom: 2.85246 
forces: 1182.323108 -0.374101 -462.527428 
Drag coefficient: 0.329970 
Lateral coefficient: -0.000104 
Lift coefficient: -0.129085 
torque (ref. CG): 0.523741 (roll) -1166.164958 (pitch) 2.282017 (yaw) 
----------------------------------------------------- 
step 1127, time 0.901600, maxvel 3.000000, total vol 183256, vol(u>maxvel) 183252, cell count 38159020
bounding box (containing cells with vel>maxvel): xmin -37.5001 -17.7002 -0.500321, xmax 116.7 17.7002 32.1096m 
bounding box of vehicle: xmin -12.2 -1.3 -4.15385e-18, xmax 4.47233e-18 1.3 3.6m 
gts area: 163.427 
yplus max: 78.575, yplus min: 0.0864746 
position of yplus max: -12.163 -1.19591 0.162214 
yplus prom: 2.8525 
forces: 1182.159495 -0.370072 -462.360667 
Drag coefficient: 0.329924 
Lateral coefficient: -0.000103 
Lift coefficient: -0.129038 
torque (ref. CG): 0.518101 (roll) -1165.376774 (pitch) 2.257439 (yaw) 
----------------------------------------------------- 
step 1128, time 0.902400, maxvel 3.000000, total vol 183256, vol(u>maxvel) 183252, cell count 38161001
bounding box (containing cells with vel>maxvel): xmin -37.5001 -17.7002 -0.500321, xmax 116.7 17.7002 32.1096m 
bounding box of vehicle: xmin -12.2 -1.3 -4.15385e-18, xmax 4.47233e-18 1.3 3.6m 
gts area: 163.427 
yplus max: 78.575, yplus min: 0.0857619 
position of yplus max: -12.163 -1.19591 0.162214 
yplus prom: 2.85253 
forces: 1182.002680 -0.368089 -462.190513 
Drag coefficient: 0.329880 
Lateral coefficient: -0.000103 
Lift coefficient: -0.128991 
torque (ref. CG): 0.515325 (roll) -1164.558379 (pitch) 2.245345 (yaw) 
----------------------------------------------------- 
step 1129, time 0.903200, maxvel 3.000000, total vol 183256, vol(u>maxvel) 183252, cell count 38163045
bounding box (containing cells with vel>maxvel): xmin -37.5001 -17.7002 -0.500321, xmax 116.7 17.7002 32.1096m 
bounding box of vehicle: xmin -12.2 -1.3 -4.15385e-18, xmax 4.47233e-18 1.3 3.6m 
gts area: 163.427 
yplus max: 78.575, yplus min: 0.0869809 
position of yplus max: -12.163 -1.19591 0.162214 
yplus prom: 2.85257 
forces: 1181.847146 -0.367263 -462.018985 
Drag coefficient: 0.329837 
Lateral coefficient: -0.000102 
Lift coefficient: -0.128943 
torque (ref. CG): 0.514169 (roll) -1163.729802 (pitch) 2.240306 (yaw) 
----------------------------------------------------- 
step 1130, time 0.904000, maxvel 3.000000, total vol 183256, vol(u>maxvel) 183252, cell count 38165016
bounding box (containing cells with vel>maxvel): xmin -37.5001 -17.7002 -0.500321, xmax 116.7 17.7002 32.1096m 
bounding box of vehicle: xmin -12.2 -1.3 -4.15385e-18, xmax 4.47233e-18 1.3 3.6m 
gts area: 163.427 
yplus max: 78.575, yplus min: 0.0899491 
position of yplus max: -12.163 -1.19591 0.162214 
yplus prom: 2.85261 
forces: 1181.688505 -0.362796 -461.861126 
Drag coefficient: 0.329792 
Lateral coefficient: -0.000101 
Lift coefficient: -0.128899 
torque (ref. CG): 0.507915 (roll) -1162.988960 (pitch) 2.213058 (yaw) 
----------------------------------------------------- 
step 1131, time 0.904800, maxvel 3.000000, total vol 183256, vol(u>maxvel) 183252, cell count 38167040
bounding box (containing cells with vel>maxvel): xmin -37.5001 -17.7002 -0.500321, xmax 116.7 17.7002 32.1096m 
bounding box of vehicle: xmin -12.2 -1.3 -4.15385e-18, xmax 4.47233e-18 1.3 3.6m 
gts area: 163.427 
yplus max: 78.575, yplus min: 0.0942877 
position of yplus max: -12.163 -1.19591 0.162214 
yplus prom: 2.85265 
forces: 1181.538823 -0.361907 -461.696218 
Drag coefficient: 0.329751 
Lateral coefficient: -0.000101 
Lift coefficient: -0.128853 
torque (ref. CG): 0.506670 (roll) -1162.192577 (pitch) 2.207635 (yaw) 
----------------------------------------------------- 
step 1132, time 0.905600, maxvel 3.000000, total vol 183256, vol(u>maxvel) 183252, cell count 38168975
bounding box (containing cells with vel>maxvel): xmin -37.5001 -17.7002 -0.500321, xmax 116.7 17.7002 32.1096m 
bounding box of vehicle: xmin -12.2 -1.3 -4.15385e-18, xmax 4.47233e-18 1.3 3.6m 
gts area: 163.427 
yplus max: 78.575, yplus min: 0.0995437 
position of yplus max: -12.163 -1.19591 0.162214 
yplus prom: 2.85269 
forces: 1181.383404 -0.358094 -461.538719 
Drag coefficient: 0.329707 
Lateral coefficient: -0.000100 
Lift coefficient: -0.128809 
torque (ref. CG): 0.501331 (roll) -1161.449422 (pitch) 2.184372 (yaw) 
----------------------------------------------------- 
step 1133, time 0.906400, maxvel 3.000000, total vol 183256, vol(u>maxvel) 183252, cell count 38170920
bounding box (containing cells with vel>maxvel): xmin -37.5001 -17.7002 -0.500321, xmax 116.7 17.7002 32.1096m 
bounding box of vehicle: xmin -12.2 -1.3 -4.15385e-18, xmax 4.47233e-18 1.3 3.6m 
gts area: 163.427 
yplus max: 78.575, yplus min: 0.105345 
position of yplus max: -12.163 -1.19591 0.162214 
yplus prom: 2.85273 
forces: 1181.232196 -0.354875 -461.386074 
Drag coefficient: 0.329665 
Lateral coefficient: -0.000099 
Lift coefficient: -0.128766 
torque (ref. CG): 0.496824 (roll) -1160.729978 (pitch) 2.164735 (yaw) 
----------------------------------------------------- 
step 1134, time 0.907200, maxvel 3.000000, total vol 183256, vol(u>maxvel) 183252, cell count 38173034
bounding box (containing cells with vel>maxvel): xmin -37.5001 -17.7002 -0.500321, xmax 116.7 17.7002 32.1096m 
bounding box of vehicle: xmin -12.2 -1.3 -4.15385e-18, xmax 4.47233e-18 1.3 3.6m 
gts area: 163.427 
yplus max: 78.575, yplus min: 0.111412 
position of yplus max: -12.163 -1.19591 0.162214 
yplus prom: 2.85278 
forces: 1181.085883 -0.354687 -461.227967 
Drag coefficient: 0.329624 
Lateral coefficient: -0.000099 
Lift coefficient: -0.128722 
torque (ref. CG): 0.496561 (roll) -1159.970364 (pitch) 2.163588 (yaw) 
----------------------------------------------------- 
step 1135, time 0.908000, maxvel 3.000000, total vol 183256, vol(u>maxvel) 183252, cell count 38175176
bounding box (containing cells with vel>maxvel): xmin -37.5001 -17.7002 -0.500321, xmax 116.7 17.7002 32.1096m 
bounding box of vehicle: xmin -12.2 -1.3 -4.15385e-18, xmax 4.47233e-18 1.3 3.6m 
gts area: 163.427 
yplus max: 78.575, yplus min: 0.11761 
position of yplus max: -12.163 -1.19591 0.162214 
yplus prom: 2.85282 
forces: 1180.935356 -0.349408 -461.080425 
Drag coefficient: 0.329582 
Lateral coefficient: -0.000098 
Lift coefficient: -0.128681 
torque (ref. CG): 0.489171 (roll) -1159.281095 (pitch) 2.131390 (yaw) 
----------------------------------------------------- 
step 1136, time 0.908800, maxvel 3.000000, total vol 183256, vol(u>maxvel) 183252, cell count 38177348
bounding box (containing cells with vel>maxvel): xmin -37.5001 -17.7002 -0.500321, xmax 116.7 17.7002 32.1096m 
bounding box of vehicle: xmin -12.2 -1.3 -4.15385e-18, xmax 4.47233e-18 1.3 3.6m 
gts area: 163.427 
yplus max: 78.575, yplus min: 0.123811 
position of yplus max: -12.163 -1.19591 0.162214 
yplus prom: 2.85286 
forces: 1180.791755 -0.347754 -460.930051 
Drag coefficient: 0.329542 
Lateral coefficient: -0.000097 
Lift coefficient: -0.128639 
torque (ref. CG): 0.486855 (roll) -1158.564856 (pitch) 2.121299 (yaw) 
----------------------------------------------------- 
step 1137, time 0.909600, maxvel 3.000000, total vol 183256, vol(u>maxvel) 183252, cell count 38179350
bounding box (containing cells with vel>maxvel): xmin -37.5001 -17.7002 -0.500321, xmax 116.7 17.7002 32.1096m 
bounding box of vehicle: xmin -12.2 -1.3 -4.15385e-18, xmax 4.47233e-18 1.3 3.6m 
gts area: 163.427 
yplus max: 78.575, yplus min: 0.129987 
position of yplus max: -12.163 -1.19591 0.162214 
yplus prom: 2.85291 
forces: 1180.645466 -0.344492 -460.784389 
Drag coefficient: 0.329501 
Lateral coefficient: -0.000096 
Lift coefficient: -0.128598 
torque (ref. CG): 0.482288 (roll) -1157.881121 (pitch) 2.101400 (yaw) 
----------------------------------------------------- 
step 1138, time 0.910400, maxvel 3.000000, total vol 183256, vol(u>maxvel) 183252, cell count 38181519
bounding box (containing cells with vel>maxvel): xmin -37.5001 -17.7002 -0.500321, xmax 116.7 17.7002 32.1096m 
bounding box of vehicle: xmin -12.2 -1.3 -4.15385e-18, xmax 4.47233e-18 1.3 3.6m 
gts area: 163.427 
yplus max: 78.575, yplus min: 0.136071 
position of yplus max: -12.163 -1.19591 0.162214 
yplus prom: 2.85295 
forces: 1180.504773 -0.342426 -460.638290 
Drag coefficient: 0.329462 
Lateral coefficient: -0.000096 
Lift coefficient: -0.128558 
torque (ref. CG): 0.479396 (roll) -1157.186888 (pitch) 2.088798 (yaw) 
----------------------------------------------------- 
step 1139, time 0.911200, maxvel 3.000000, total vol 183256, vol(u>maxvel) 183252, cell count 38183487
bounding box (containing cells with vel>maxvel): xmin -37.5001 -17.7002 -0.500321, xmax 116.7 17.7002 32.1096m 
bounding box of vehicle: xmin -12.2 -1.3 -4.15385e-18, xmax 4.47233e-18 1.3 3.6m 
gts area: 163.427 
yplus max: 78.575, yplus min: 0.142062 
position of yplus max: -12.163 -1.19591 0.162214 
yplus prom: 2.853 
forces: 1180.364506 -0.341286 -460.492215 
Drag coefficient: 0.329423 
Lateral coefficient: -0.000095 
Lift coefficient: -0.128517 
torque (ref. CG): 0.477800 (roll) -1156.492206 (pitch) 2.081843 (yaw) 
----------------------------------------------------- 
step 1140, time 0.912000, maxvel 3.000000, total vol 183256, vol(u>maxvel) 183252, cell count 38185606
bounding box (containing cells with vel>maxvel): xmin -37.5001 -17.7002 -0.500321, xmax 116.7 17.7002 32.1096m 
bounding box of vehicle: xmin -12.2 -1.3 -4.15385e-18, xmax 4.47233e-18 1.3 3.6m 
gts area: 163.427 
yplus max: 78.575, yplus min: 0.142071 
position of yplus max: -12.163 -1.19591 0.162214 
yplus prom: 2.85305 
forces: 1180.222234 -0.336061 -460.360536 
Drag coefficient: 0.329383 
Lateral coefficient: -0.000094 
Lift coefficient: -0.128480 
torque (ref. CG): 0.470485 (roll) -1155.888140 (pitch) 2.049972 (yaw) 
----------------------------------------------------- 
step 1141, time 0.912800, maxvel 3.000000, total vol 183256, vol(u>maxvel) 183252, cell count 38187543
bounding box (containing cells with vel>maxvel): xmin -37.5001 -17.7002 -0.500321, xmax 116.7 17.7002 32.1096m 
bounding box of vehicle: xmin -12.2 -1.3 -4.15385e-18, xmax 4.47233e-18 1.3 3.6m 
gts area: 163.427 
yplus max: 78.5749, yplus min: 0.136767 
position of yplus max: -12.163 -1.19591 0.162214 
yplus prom: 2.85309 
forces: 1180.087720 -0.335135 -460.219023 
Drag coefficient: 0.329346 
Lateral coefficient: -0.000094 
Lift coefficient: -0.128441 
torque (ref. CG): 0.469189 (roll) -1155.213231 (pitch) 2.044324 (yaw) 
----------------------------------------------------- 
step 1142, time 0.913600, maxvel 3.000000, total vol 183256, vol(u>maxvel) 183252, cell count 38189492
bounding box (containing cells with vel>maxvel): xmin -37.5001 -17.7002 -0.500321, xmax 116.7 17.7002 32.1096m 
bounding box of vehicle: xmin -12.2 -1.3 -4.15385e-18, xmax 4.47233e-18 1.3 3.6m 
gts area: 163.427 
yplus max: 78.5749, yplus min: 0.131289 
position of yplus max: -12.163 -1.19591 0.162214 
yplus prom: 2.85314 
forces: 1179.947495 -0.331102 -460.090659 
Drag coefficient: 0.329307 
Lateral coefficient: -0.000092 
Lift coefficient: -0.128405 
torque (ref. CG): 0.463543 (roll) -1154.626527 (pitch) 2.019725 (yaw) 
----------------------------------------------------- 
step 1143, time 0.914400, maxvel 3.000000, total vol 183256, vol(u>maxvel) 183252, cell count 38191539
bounding box (containing cells with vel>maxvel): xmin -37.5001 -17.7002 -0.500321, xmax 116.7 17.7002 32.1096m 
bounding box of vehicle: xmin -12.2 -1.3 -4.15385e-18, xmax 4.47233e-18 1.3 3.6m 
gts area: 163.427 
yplus max: 78.5749, yplus min: 0.125644 
position of yplus max: -12.163 -1.19591 0.162214 
yplus prom: 2.85319 
forces: 1179.813647 -0.328379 -459.956339 
Drag coefficient: 0.329269 
Lateral coefficient: -0.000092 
Lift coefficient: -0.128367 
torque (ref. CG): 0.459731 (roll) -1153.994561 (pitch) 2.003112 (yaw) 
----------------------------------------------------- 
step 1144, time 0.915200, maxvel 3.000000, total vol 183256, vol(u>maxvel) 183252, cell count 38193499
bounding box (containing cells with vel>maxvel): xmin -37.5001 -17.7002 -0.500321, xmax 116.7 17.7002 32.1096m 
bounding box of vehicle: xmin -12.2 -1.3 -4.15385e-18, xmax 4.47233e-18 1.3 3.6m 
gts area: 163.427 
yplus max: 78.5749, yplus min: 0.119889 
position of yplus max: -12.163 -1.19591 0.162214 
yplus prom: 2.85324 
forces: 1179.682716 -0.326355 -459.821113 
Drag coefficient: 0.329233 
Lateral coefficient: -0.000091 
Lift coefficient: -0.128330 
torque (ref. CG): 0.456897 (roll) -1153.352984 (pitch) 1.990764 (yaw) 
----------------------------------------------------- 
step 1145, time 0.916000, maxvel 3.000000, total vol 183256, vol(u>maxvel) 183252, cell count 38195419
bounding box (containing cells with vel>maxvel): xmin -37.5001 -17.7002 -0.500321, xmax 116.7 17.7002 32.1096m 
bounding box of vehicle: xmin -12.2 -1.3 -4.15385e-18, xmax 4.47233e-18 1.3 3.6m 
gts area: 163.427 
yplus max: 78.5749, yplus min: 0.114062 
position of yplus max: -12.163 -1.19591 0.162214 
yplus prom: 2.85329 
forces: 1179.552042 -0.324438 -459.690294 
Drag coefficient: 0.329196 
Lateral coefficient: -0.000091 
Lift coefficient: -0.128293 
torque (ref. CG): 0.454213 (roll) -1152.737931 (pitch) 1.979073 (yaw) 
----------------------------------------------------- 
step 1146, time 0.916800, maxvel 3.000000, total vol 183256, vol(u>maxvel) 183252, cell count 38197385
bounding box (containing cells with vel>maxvel): xmin -37.5001 -17.7002 -0.500321, xmax 116.7 17.7002 32.1096m 
bounding box of vehicle: xmin -12.2 -1.3 -4.15385e-18, xmax 4.47233e-18 1.3 3.6m 
gts area: 163.427 
yplus max: 78.5749, yplus min: 0.10829 
position of yplus max: -12.163 -1.19591 0.162214 
yplus prom: 2.85334 
forces: 1179.418996 -0.319537 -459.570995 
Drag coefficient: 0.329159 
Lateral coefficient: -0.000089 
Lift coefficient: -0.128260 
torque (ref. CG): 0.447352 (roll) -1152.196472 (pitch) 1.949174 (yaw) 
----------------------------------------------------- 
step 1147, time 0.917600, maxvel 3.000000, total vol 183256, vol(u>maxvel) 183252, cell count 38199361
bounding box (containing cells with vel>maxvel): xmin -37.5001 -17.7002 -0.500321, xmax 116.7 17.7002 32.1096m 
bounding box of vehicle: xmin -12.2 -1.3 -4.15385e-18, xmax 4.47233e-18 1.3 3.6m 
gts area: 163.427 
yplus max: 78.5749, yplus min: 0.102801 
position of yplus max: -12.163 -1.19591 0.162214 
yplus prom: 2.8534 
forces: 1179.293603 -0.318321 -459.443210 
Drag coefficient: 0.329124 
Lateral coefficient: -0.000089 
Lift coefficient: -0.128224 
torque (ref. CG): 0.445649 (roll) -1151.592536 (pitch) 1.941755 (yaw) 
----------------------------------------------------- 
srun: Job step aborted: Waiting up to 32 seconds for job step to finish.
srun: got SIGCONT
slurmstepd: error: *** JOB 141012 ON compute-0-6 CANCELLED AT 2022-09-21T21:13:32 ***
srun: forcing job termination
make: *** [run] Terminado
slurmstepd: error: *** STEP 141012.0 ON compute-0-6 CANCELLED AT 2022-09-21T21:13:32 ***
