Start run at Tue Aug 9 13:28:47 ART 2022
PYTHON_CS_XFLAGS=' -O0 -g3 -ggdb3 -I/usr/include/jsoncpp ' /share/storage/pub/mstorti/saturne-vof/bin/code_saturne  run --param setup.xml

The following have been reloaded with a version change:
  1) llvm/6.0.0 => llvm/3.4.2


The following have been reloaded with a version change:
  1) llvm/3.4.2 => llvm/6.0.0


                      Code_Saturne
                      ************

 Version:   6.1-alpha
 Path:      /share/storage/pub/mstorti/saturne-vof

 Result directory:
   /share/storage/finzeo/GTS_Tunay_2/RESU/20220809-1328


 ****************************************
  Compiling user subroutines and linking
 ****************************************


 ****************************
  Preparing calculation data
 ****************************

 Parallel Code_Saturne on 100 processes.


 ***************************
  Preprocessing calculation
 ***************************


 **********************
  Starting calculation
 **********************

Warning: Process to core binding is enabled and OMP_NUM_THREADS is set to non-zero (1) value
If your program has OpenMP sections, this can cause over-subscription of cores and consequently poor performance
To avoid this, please re-run your application after setting MV2_ENABLE_AFFINITY=0
Use MV2_USE_THREAD_WARNING=0 to suppress this message
step 1, time 0.000143, maxvel 30.000000, total vol 183256, vol(u>maxvel) 7.68403, cell count 65304
bounding box (containing cells with vel>maxvel): xmin -12.2899 -1.86039 -0.477237, xmax 0.19015 1.86039 4.07069m 
bounding box of vehicle: xmin -12.2 -1.30026 -1.92988e-17, xmax 9.54098e-18 1.30026 3.60025m 
gts area: 163.362 
yplus max: 274.445, yplus min: 0 
position of yplus max: -10.1103 1.3 3.06913 
yplus prom: 58.6815 
forces: 9131842.692235 -19667.960234 -350885.153384 
Drag coefficient (area added manually): 2548.569389 
torque (ref. CG): 27535.144328 (roll) 10644180.333488 (pitch) 119974.557429 (yaw) 
----------------------------------------------------- 
step 2, time 0.000286, maxvel 30.000000, total vol 183256, vol(u>maxvel) 7.9804, cell count 72273
bounding box (containing cells with vel>maxvel): xmin -12.2877 -1.87537 -0.477237, xmax 0.190574 1.87537 4.10598m 
bounding box of vehicle: xmin -12.2 -1.30026 -1.92988e-17, xmax 9.54098e-18 1.30026 3.60025m 
gts area: 163.362 
yplus max: 306.984, yplus min: 8.14805 
position of yplus max: -11.6111 1.3 2.33007 
yplus prom: 60.7306 
forces: 4193379.788052 -52.790795 -517214.705126 
Drag coefficient (area added manually): 1170.313564 
torque (ref. CG): 73.907113 (roll) 2715722.002002 (pitch) 322.023850 (yaw) 
----------------------------------------------------- 
step 3, time 0.000428, maxvel 30.000000, total vol 183256, vol(u>maxvel) 7.93163, cell count 71088
bounding box (containing cells with vel>maxvel): xmin -12.2877 -1.87463 -0.477237, xmax 0.193562 1.87463 4.10598m 
bounding box of vehicle: xmin -12.2 -1.30026 -1.92988e-17, xmax 9.54098e-18 1.30026 3.60025m 
gts area: 163.362 
yplus max: 305.06, yplus min: 8.02655 
position of yplus max: -11.6111 1.3 2.33007 
yplus prom: 60.7186 
forces: 102402.984404 -267.471159 -21790.880647 
Drag coefficient (area added manually): 28.579239 
torque (ref. CG): 374.459622 (roll) 10439.806221 (pitch) 1631.574067 (yaw) 
----------------------------------------------------- 
step 4, time 0.000571, maxvel 30.000000, total vol 183256, vol(u>maxvel) 7.93733, cell count 70574
bounding box (containing cells with vel>maxvel): xmin -12.2877 -1.87463 -0.477237, xmax 0.253627 1.87463 4.10598m 
bounding box of vehicle: xmin -12.2 -1.30026 -1.92988e-17, xmax 9.54098e-18 1.30026 3.60025m 
gts area: 163.362 
yplus max: 304.76, yplus min: 8.0302 
position of yplus max: -11.6111 1.3 2.33007 
yplus prom: 60.6746 
forces: -6539.183250 157.363367 3803.673213 
Drag coefficient (area added manually): -1.824994 
torque (ref. CG): -220.308714 (roll) 14047.550048 (pitch) -959.916542 (yaw) 
----------------------------------------------------- 
step 5, time 0.000714, maxvel 30.000000, total vol 183256, vol(u>maxvel) 7.93427, cell count 70420
bounding box (containing cells with vel>maxvel): xmin -12.2877 -1.87424 -0.477237, xmax 0.253946 1.87424 4.10598m 
bounding box of vehicle: xmin -12.2 -1.30026 -1.92988e-17, xmax 9.54098e-18 1.30026 3.60025m 
gts area: 163.362 
yplus max: 304.708, yplus min: 8.02276 
position of yplus max: -11.6111 1.3 2.33007 
yplus prom: 60.6603 
forces: 3458.058849 39.592115 -242.738749 
Drag coefficient (area added manually): 0.965096 
torque (ref. CG): -55.428962 (roll) 3360.576017 (pitch) -241.511904 (yaw) 
----------------------------------------------------- 
step 6, time 0.000857, maxvel 30.000000, total vol 183256, vol(u>maxvel) 7.92302, cell count 70266
bounding box (containing cells with vel>maxvel): xmin -12.2877 -1.87424 -0.477237, xmax 0.254043 1.87424 4.10598m 
bounding box of vehicle: xmin -12.2 -1.30026 -1.92988e-17, xmax 9.54098e-18 1.30026 3.60025m 
gts area: 163.362 
yplus max: 304.564, yplus min: 8.01577 
position of yplus max: -11.6111 1.3 2.33007 
yplus prom: 60.6468 
forces: 4042.224659 -1.968998 -994.617363 
Drag coefficient (area added manually): 1.128128 
torque (ref. CG): 2.756597 (roll) -408.051394 (pitch) 12.010885 (yaw) 
----------------------------------------------------- 
step 7, time 0.001000, maxvel 30.000000, total vol 183256, vol(u>maxvel) 7.92924, cell count 70227
bounding box (containing cells with vel>maxvel): xmin -12.2876 -1.87382 -0.477237, xmax 0.256341 1.87382 4.10598m 
bounding box of vehicle: xmin -12.2 -1.30026 -1.92988e-17, xmax 9.54098e-18 1.30026 3.60025m 
gts area: 163.362 
yplus max: 304.385, yplus min: 8.00901 
position of yplus max: -11.6111 1.3 2.33007 
yplus prom: 60.6309 
forces: 3716.081191 -1.348413 -967.974186 
Drag coefficient (area added manually): 1.037106 
torque (ref. CG): 1.887778 (roll) -702.128867 (pitch) 8.225318 (yaw) 
----------------------------------------------------- 
step 8, time 0.001142, maxvel 30.000000, total vol 183256, vol(u>maxvel) 7.92432, cell count 70161
bounding box (containing cells with vel>maxvel): xmin -12.2876 -1.87339 -0.477237, xmax 0.25653 1.87339 4.10598m 
bounding box of vehicle: xmin -12.2 -1.30026 -1.92988e-17, xmax 9.54098e-18 1.30026 3.60025m 
gts area: 163.362 
yplus max: 304.205, yplus min: 8.00224 
position of yplus max: -11.6111 1.3 2.33007 
yplus prom: 60.6127 
forces: 3549.658844 0.816670 -941.610383 
Drag coefficient (area added manually): 0.990660 
torque (ref. CG): -1.143338 (roll) -774.300955 (pitch) -4.981686 (yaw) 
----------------------------------------------------- 
step 9, time 0.001285, maxvel 30.000000, total vol 183256, vol(u>maxvel) 7.92073, cell count 70039
bounding box (containing cells with vel>maxvel): xmin -12.2876 -1.8614 -0.477237, xmax 0.256618 1.8614 4.10598m 
bounding box of vehicle: xmin -12.2 -1.30026 -1.92988e-17, xmax 9.54098e-18 1.30026 3.60025m 
gts area: 163.362 
yplus max: 304.03, yplus min: 5.42934 
position of yplus max: -11.6111 1.3 2.33007 
yplus prom: 60.5925 
forces: 3461.755943 1.391053 -938.373468 
Drag coefficient (area added manually): 0.966128 
torque (ref. CG): -1.947474 (roll) -877.619835 (pitch) -8.485421 (yaw) 
----------------------------------------------------- 
step 10, time 0.001428, maxvel 30.000000, total vol 183256, vol(u>maxvel) 7.92052, cell count 70087
bounding box (containing cells with vel>maxvel): xmin -12.2876 -1.8614 -0.477237, xmax 0.256702 1.8614 4.10598m 
bounding box of vehicle: xmin -12.2 -1.30026 -1.92988e-17, xmax 9.54098e-18 1.30026 3.60025m 
gts area: 163.362 
yplus max: 303.858, yplus min: 7.98842 
position of yplus max: -11.6111 1.3 2.33007 
yplus prom: 60.5814 
forces: 3403.959893 1.337425 -939.290987 
Drag coefficient (area added manually): 0.949998 
torque (ref. CG): -1.872394 (roll) -964.131170 (pitch) -8.158290 (yaw) 
----------------------------------------------------- 
step 11, time 0.001571, maxvel 30.000000, total vol 183256, vol(u>maxvel) 7.9159, cell count 70064
bounding box (containing cells with vel>maxvel): xmin -12.2876 -1.8614 -0.477237, xmax 0.256784 1.8614 4.10598m 
bounding box of vehicle: xmin -12.2 -1.30026 -1.92988e-17, xmax 9.54098e-18 1.30026 3.60025m 
gts area: 163.362 
yplus max: 303.686, yplus min: 4.38151 
position of yplus max: -11.6111 1.3 2.33007 
yplus prom: 60.5827 
forces: 3361.526404 1.214327 -940.525713 
Drag coefficient (area added manually): 0.938155 
torque (ref. CG): -1.700057 (roll) -1031.069887 (pitch) -7.407393 (yaw) 
----------------------------------------------------- 
step 12, time 0.001714, maxvel 30.000000, total vol 183256, vol(u>maxvel) 7.90807, cell count 70050
bounding box (containing cells with vel>maxvel): xmin -12.2876 -1.86116 -0.477237, xmax 0.256863 1.86116 4.10598m 
bounding box of vehicle: xmin -12.2 -1.30026 -1.92988e-17, xmax 9.54098e-18 1.30026 3.60025m 
gts area: 163.362 
yplus max: 303.513, yplus min: 7.97418 
position of yplus max: -11.6111 1.3 2.33007 
yplus prom: 60.5906 
forces: 3328.236789 1.119682 -941.844439 
Drag coefficient (area added manually): 0.928864 
torque (ref. CG): -1.567555 (roll) -1085.719572 (pitch) -6.830062 (yaw) 
----------------------------------------------------- 
step 13, time 0.001856, maxvel 30.000000, total vol 183256, vol(u>maxvel) 7.9124, cell count 70114
bounding box (containing cells with vel>maxvel): xmin -12.2876 -1.86116 -0.477237, xmax 0.256942 1.86116 4.10598m 
bounding box of vehicle: xmin -12.2 -1.30026 -1.92988e-17, xmax 9.54098e-18 1.30026 3.60025m 
gts area: 163.362 
yplus max: 303.337, yplus min: 7.96689 
position of yplus max: -11.6111 1.3 2.33007 
yplus prom: 60.5978 
forces: 3300.971313 1.032206 -943.226884 
Drag coefficient (area added manually): 0.921255 
torque (ref. CG): -1.445088 (roll) -1132.324155 (pitch) -6.296456 (yaw) 
----------------------------------------------------- 
step 14, time 0.001999, maxvel 30.000000, total vol 183256, vol(u>maxvel) 7.90866, cell count 70032
bounding box (containing cells with vel>maxvel): xmin -12.2875 -1.86116 -0.477237, xmax 0.259768 1.86116 4.10598m 
bounding box of vehicle: xmin -12.2 -1.30026 -1.92988e-17, xmax 9.54098e-18 1.30026 3.60025m 
gts area: 163.362 
yplus max: 303.156, yplus min: 7.95949 
position of yplus max: -11.6111 1.3 2.33007 
yplus prom: 60.6037 
forces: 3277.972269 0.935769 -944.604124 
Drag coefficient (area added manually): 0.914836 
torque (ref. CG): -1.310076 (roll) -1172.923983 (pitch) -5.708188 (yaw) 
----------------------------------------------------- 
step 15, time 0.002142, maxvel 30.000000, total vol 183256, vol(u>maxvel) 7.909, cell count 69889
bounding box (containing cells with vel>maxvel): xmin -12.2875 -1.86116 -0.477237, xmax 0.259772 1.86116 4.10598m 
bounding box of vehicle: xmin -12.2 -1.30026 -1.92988e-17, xmax 9.54098e-18 1.30026 3.60025m 
gts area: 163.362 
yplus max: 302.97, yplus min: 7.95198 
position of yplus max: -11.6111 1.3 2.33007 
yplus prom: 60.6083 
forces: 3258.496279 0.847347 -945.743950 
Drag coefficient (area added manually): 0.909401 
torque (ref. CG): -1.186286 (roll) -1207.143307 (pitch) -5.168818 (yaw) 
----------------------------------------------------- 
step 16, time 0.002285, maxvel 30.000000, total vol 183256, vol(u>maxvel) 7.90264, cell count 69815
bounding box (containing cells with vel>maxvel): xmin -12.2875 -1.86116 -0.477237, xmax 0.25978 1.86116 4.10598m 
bounding box of vehicle: xmin -12.2 -1.30026 -1.92988e-17, xmax 9.54098e-18 1.30026 3.60025m 
gts area: 163.362 
yplus max: 302.778, yplus min: 7.94437 
position of yplus max: -11.6111 1.3 2.33007 
yplus prom: 60.6114 
forces: 3242.321057 0.762383 -946.800403 
Drag coefficient (area added manually): 0.904886 
torque (ref. CG): -1.067336 (roll) -1236.232981 (pitch) -4.650538 (yaw) 
----------------------------------------------------- 
step 17, time 0.002428, maxvel 30.000000, total vol 183256, vol(u>maxvel) 7.89978, cell count 69731
bounding box (containing cells with vel>maxvel): xmin -12.2874 -1.86116 -0.477237, xmax 0.259792 1.86116 4.10598m 
bounding box of vehicle: xmin -12.2 -1.30026 -1.92988e-17, xmax 9.54098e-18 1.30026 3.60025m 
gts area: 163.362 
yplus max: 302.58, yplus min: 7.93664 
position of yplus max: -11.6111 1.3 2.33007 
yplus prom: 60.6132 
forces: 3228.536668 0.681219 -947.835624 
Drag coefficient (area added manually): 0.901039 
torque (ref. CG): -0.953706 (roll) -1261.845969 (pitch) -4.155433 (yaw) 
----------------------------------------------------- 
step 18, time 0.002570, maxvel 30.000000, total vol 183256, vol(u>maxvel) 7.88706, cell count 69628
bounding box (containing cells with vel>maxvel): xmin -12.2874 -1.86116 -0.477237, xmax 0.259792 1.86116 4.10598m 
bounding box of vehicle: xmin -12.2 -1.30026 -1.92988e-17, xmax 9.54098e-18 1.30026 3.60025m 
gts area: 163.362 
yplus max: 302.376, yplus min: 7.92881 
position of yplus max: -11.6111 1.3 2.33007 
yplus prom: 60.6138 
forces: 3216.581379 0.608528 -948.825710 
Drag coefficient (area added manually): 0.897703 
torque (ref. CG): -0.851939 (roll) -1284.622904 (pitch) -3.712022 (yaw) 
----------------------------------------------------- 
step 19, time 0.002713, maxvel 30.000000, total vol 183256, vol(u>maxvel) 7.88122, cell count 69621
bounding box (containing cells with vel>maxvel): xmin -12.2874 -1.86091 -0.477237, xmax 0.259809 1.86091 4.10598m 
bounding box of vehicle: xmin -12.2 -1.30026 -1.92988e-17, xmax 9.54098e-18 1.30026 3.60025m 
gts area: 163.362 
yplus max: 302.166, yplus min: 7.92088 
position of yplus max: -11.6111 1.3 2.33007 
yplus prom: 60.6134 
forces: 3206.135580 0.542076 -949.809399 
Drag coefficient (area added manually): 0.894788 
torque (ref. CG): -0.758906 (roll) -1305.247524 (pitch) -3.306664 (yaw) 
----------------------------------------------------- 
step 20, time 0.002856, maxvel 30.000000, total vol 183256, vol(u>maxvel) 7.87276, cell count 69561
bounding box (containing cells with vel>maxvel): xmin -12.2873 -1.86091 -0.477237, xmax 0.259809 1.86091 4.10598m 
bounding box of vehicle: xmin -12.2 -1.30026 -1.92988e-17, xmax 9.54098e-18 1.30026 3.60025m 
gts area: 163.362 
yplus max: 301.951, yplus min: 7.66886 
position of yplus max: -11.6111 1.3 2.33007 
yplus prom: 60.6121 
forces: 3196.953202 0.485196 -950.768721 
Drag coefficient (area added manually): 0.892225 
torque (ref. CG): -0.679274 (roll) -1323.954718 (pitch) -2.959695 (yaw) 
----------------------------------------------------- 
step 21, time 0.002999, maxvel 30.000000, total vol 183256, vol(u>maxvel) 7.8594, cell count 69497
bounding box (containing cells with vel>maxvel): xmin -12.2854 -1.86091 -0.477237, xmax 0.259834 1.86091 4.10598m 
bounding box of vehicle: xmin -12.2 -1.30026 -1.92988e-17, xmax 9.54098e-18 1.30026 3.60025m 
gts area: 163.362 
yplus max: 301.731, yplus min: 1.76005 
position of yplus max: -11.6111 1.3 2.33007 
yplus prom: 60.6102 
forces: 3189.029287 0.423987 -951.702258 
Drag coefficient (area added manually): 0.890013 
torque (ref. CG): -0.593582 (roll) -1340.742770 (pitch) -2.586321 (yaw) 
----------------------------------------------------- 
step 22, time 0.003142, maxvel 30.000000, total vol 183256, vol(u>maxvel) 7.85297, cell count 69488
bounding box (containing cells with vel>maxvel): xmin -12.2854 -1.86091 -0.477237, xmax 0.259834 1.86091 4.10598m 
bounding box of vehicle: xmin -12.2 -1.30026 -1.92988e-17, xmax 9.54098e-18 1.30026 3.60025m 
gts area: 163.362 
yplus max: 301.506, yplus min: 6.0469 
position of yplus max: -11.6111 1.3 2.33007 
yplus prom: 60.6102 
forces: 3181.928503 0.384303 -952.635414 
Drag coefficient (area added manually): 0.888032 
torque (ref. CG): -0.538024 (roll) -1356.376120 (pitch) -2.344246 (yaw) 
----------------------------------------------------- 
step 23, time 0.003284, maxvel 30.000000, total vol 183256, vol(u>maxvel) 7.83796, cell count 69434
bounding box (containing cells with vel>maxvel): xmin -12.2853 -1.86091 -0.477237, xmax 0.259834 1.86091 4.10598m 
bounding box of vehicle: xmin -12.2 -1.30026 -1.92988e-17, xmax 9.54098e-18 1.30026 3.60025m 
gts area: 163.362 
yplus max: 301.277, yplus min: 4.89958 
position of yplus max: -11.6111 1.3 2.33007 
yplus prom: 60.6105 
forces: 3175.857221 0.341170 -953.494740 
Drag coefficient (area added manually): 0.886337 
torque (ref. CG): -0.477638 (roll) -1370.117806 (pitch) -2.081137 (yaw) 
----------------------------------------------------- 
step 24, time 0.003427, maxvel 30.000000, total vol 183256, vol(u>maxvel) 7.82462, cell count 69421
bounding box (containing cells with vel>maxvel): xmin -12.2853 -1.86091 -0.477237, xmax 0.259872 1.86091 4.10598m 
bounding box of vehicle: xmin -12.2 -1.30026 -1.92988e-17, xmax 9.54098e-18 1.30026 3.60025m 
gts area: 163.362 
yplus max: 301.044, yplus min: 2.98527 
position of yplus max: -11.6111 1.3 2.33007 
yplus prom: 60.6107 
forces: 3171.032432 0.304760 -954.256028 
Drag coefficient (area added manually): 0.884991 
torque (ref. CG): -0.426664 (roll) -1381.516369 (pitch) -1.859037 (yaw) 
----------------------------------------------------- 
step 25, time 0.003570, maxvel 30.000000, total vol 183256, vol(u>maxvel) 7.81515, cell count 69454
bounding box (containing cells with vel>maxvel): xmin -12.2853 -1.86091 -0.477237, xmax 0.259872 1.86091 4.10437m 
bounding box of vehicle: xmin -12.2 -1.30026 -1.92988e-17, xmax 9.54098e-18 1.30026 3.60025m 
gts area: 163.362 
yplus max: 300.808, yplus min: 6.00616 
position of yplus max: -11.6111 1.3 2.33007 
yplus prom: 60.6109 
forces: 3167.322741 0.274790 -954.961161 
Drag coefficient (area added manually): 0.883955 
torque (ref. CG): -0.384706 (roll) -1391.011245 (pitch) -1.676218 (yaw) 
----------------------------------------------------- 
step 26, time 0.003713, maxvel 30.000000, total vol 183256, vol(u>maxvel) 7.8143, cell count 69472
bounding box (containing cells with vel>maxvel): xmin -12.2853 -1.86065 -0.477237, xmax 0.259872 1.86065 4.10437m 
bounding box of vehicle: xmin -12.2 -1.30026 -1.92988e-17, xmax 9.54098e-18 1.30026 3.60025m 
gts area: 163.362 
yplus max: 300.569, yplus min: 7.86258 
position of yplus max: -11.6111 1.3 2.33007 
yplus prom: 60.6111 
forces: 3164.495876 0.249194 -955.625654 
Drag coefficient (area added manually): 0.883166 
torque (ref. CG): -0.348872 (roll) -1399.022263 (pitch) -1.520084 (yaw) 
----------------------------------------------------- 
step 27, time 0.003856, maxvel 30.000000, total vol 183256, vol(u>maxvel) 7.81088, cell count 69497
bounding box (containing cells with vel>maxvel): xmin -12.2853 -1.86065 -0.477237, xmax 0.259872 1.86065 4.10437m 
bounding box of vehicle: xmin -12.2 -1.30026 -1.92988e-17, xmax 9.54098e-18 1.30026 3.60025m 
gts area: 163.362 
yplus max: 300.327, yplus min: 7.85387 
position of yplus max: -11.6111 1.3 2.33007 
yplus prom: 60.611 
forces: 3162.343038 0.227963 -956.249918 
Drag coefficient (area added manually): 0.882566 
torque (ref. CG): -0.319148 (roll) -1405.844248 (pitch) -1.390572 (yaw) 
----------------------------------------------------- 
step 28, time 0.003998, maxvel 30.000000, total vol 183256, vol(u>maxvel) 7.81287, cell count 69595
bounding box (containing cells with vel>maxvel): xmin -12.2852 -1.86065 -0.477237, xmax 0.259925 1.86065 4.10437m 
bounding box of vehicle: xmin -12.2 -1.30026 -1.92988e-17, xmax 9.54098e-18 1.30026 3.60025m 
gts area: 163.362 
yplus max: 300.083, yplus min: 7.84506 
position of yplus max: -11.6111 1.3 2.33007 
yplus prom: 60.6106 
forces: 3160.684759 0.209361 -956.846766 
Drag coefficient (area added manually): 0.882103 
torque (ref. CG): -0.293105 (roll) -1411.806609 (pitch) -1.277100 (yaw) 
----------------------------------------------------- 
step 29, time 0.004141, maxvel 30.000000, total vol 183256, vol(u>maxvel) 7.80728, cell count 69608
bounding box (containing cells with vel>maxvel): xmin -12.2852 -1.86065 -0.477237, xmax 0.259925 1.86065 4.10437m 
bounding box of vehicle: xmin -12.2 -1.30026 -1.92988e-17, xmax 9.54098e-18 1.30026 3.60025m 
gts area: 163.362 
yplus max: 299.836, yplus min: 7.47003 
position of yplus max: -11.6111 1.3 2.33007 
yplus prom: 60.61 
forces: 3159.388538 0.196750 -957.452615 
Drag coefficient (area added manually): 0.881741 
torque (ref. CG): -0.275450 (roll) -1417.317000 (pitch) -1.200175 (yaw) 
----------------------------------------------------- 
step 30, time 0.004284, maxvel 30.000000, total vol 183256, vol(u>maxvel) 7.79881, cell count 69622
bounding box (containing cells with vel>maxvel): xmin -12.2852 -1.86065 -0.477237, xmax 0.259925 1.86065 4.10437m 
bounding box of vehicle: xmin -12.2 -1.30026 -1.92988e-17, xmax 9.54098e-18 1.30026 3.60025m 
gts area: 163.362 
yplus max: 299.588, yplus min: 4.23962 
position of yplus max: -11.6111 1.3 2.33007 
yplus prom: 60.6092 
forces: 3158.350158 0.185908 -958.003026 
Drag coefficient (area added manually): 0.881451 
torque (ref. CG): -0.260271 (roll) -1422.128236 (pitch) -1.134040 (yaw) 
----------------------------------------------------- 
step 31, time 0.004427, maxvel 30.000000, total vol 183256, vol(u>maxvel) 7.79344, cell count 69742
bounding box (containing cells with vel>maxvel): xmin -12.2852 -1.86039 -0.477237, xmax 0.259925 1.86039 4.10437m 
bounding box of vehicle: xmin -12.2 -1.30026 -1.92988e-17, xmax 9.54098e-18 1.30026 3.60025m 
gts area: 163.362 
yplus max: 299.339, yplus min: 4.98271 
position of yplus max: -11.6111 1.3 2.33007 
yplus prom: 60.6085 
forces: 3157.488229 0.174890 -958.566777 
Drag coefficient (area added manually): 0.881211 
torque (ref. CG): -0.244847 (roll) -1426.773817 (pitch) -1.066832 (yaw) 
----------------------------------------------------- 
step 32, time 0.004570, maxvel 30.000000, total vol 183256, vol(u>maxvel) 7.79378, cell count 69842
bounding box (containing cells with vel>maxvel): xmin -12.2851 -1.86039 -0.477237, xmax 0.260843 1.86039 4.10437m 
bounding box of vehicle: xmin -12.2 -1.30026 -1.92988e-17, xmax 9.54098e-18 1.30026 3.60025m 
gts area: 163.362 
yplus max: 299.088, yplus min: 7.45534 
position of yplus max: -11.6111 1.3 2.33007 
yplus prom: 60.6078 
forces: 3156.839608 0.169559 -959.086138 
Drag coefficient (area added manually): 0.881030 
torque (ref. CG): -0.237383 (roll) -1430.849991 (pitch) -1.034313 (yaw) 
----------------------------------------------------- 
step 33, time 0.004712, maxvel 30.000000, total vol 183256, vol(u>maxvel) 7.80052, cell count 69930
bounding box (containing cells with vel>maxvel): xmin -12.2851 -1.86039 -0.477237, xmax 0.261089 1.86039 4.10437m 
bounding box of vehicle: xmin -12.2 -1.30026 -1.92988e-17, xmax 9.54098e-18 1.30026 3.60025m 
gts area: 163.362 
yplus max: 298.837, yplus min: 4.27731 
position of yplus max: -11.6111 1.3 2.33007 
yplus prom: 60.6074 
forces: 3156.325680 0.165379 -959.618113 
Drag coefficient (area added manually): 0.880886 
torque (ref. CG): -0.231530 (roll) -1434.814536 (pitch) -1.008811 (yaw) 
----------------------------------------------------- 
step 34, time 0.004855, maxvel 30.000000, total vol 183256, vol(u>maxvel) 7.79035, cell count 69932
bounding box (containing cells with vel>maxvel): xmin -12.2851 -1.86039 -0.477237, xmax 0.261203 1.86039 4.10437m 
bounding box of vehicle: xmin -12.2 -1.30026 -1.92988e-17, xmax 9.54098e-18 1.30026 3.60025m 
gts area: 163.362 
yplus max: 298.585, yplus min: 2.37817 
position of yplus max: -11.6111 1.3 2.33007 
yplus prom: 60.6077 
forces: 3156.174148 0.160510 -960.070398 
Drag coefficient (area added manually): 0.880844 
torque (ref. CG): -0.224714 (roll) -1437.785618 (pitch) -0.979112 (yaw) 
----------------------------------------------------- 
step 35, time 0.004998, maxvel 30.000000, total vol 183256, vol(u>maxvel) 7.78464, cell count 69909
bounding box (containing cells with vel>maxvel): xmin -12.285 -1.86039 -0.477237, xmax 0.261312 1.86039 4.10437m 
bounding box of vehicle: xmin -12.2 -1.30026 -1.92988e-17, xmax 9.54098e-18 1.30026 3.60025m 
gts area: 163.362 
yplus max: 298.333, yplus min: 4.04239 
position of yplus max: -11.6111 1.3 2.33007 
yplus prom: 60.6095 
forces: 3156.313753 0.160477 -960.494456 
Drag coefficient (area added manually): 0.880883 
torque (ref. CG): -0.224668 (roll) -1440.176926 (pitch) -0.978913 (yaw) 
----------------------------------------------------- 
step 36, time 0.005141, maxvel 30.000000, total vol 183256, vol(u>maxvel) 7.77878, cell count 69936
bounding box (containing cells with vel>maxvel): xmin -12.285 -1.86011 -0.477237, xmax 0.261414 1.86011 4.10437m 
bounding box of vehicle: xmin -12.2 -1.30026 -1.92988e-17, xmax 9.54098e-18 1.30026 3.60025m 
gts area: 163.362 
yplus max: 298.081, yplus min: 6.82191 
position of yplus max: -11.6111 1.3 2.33007 
yplus prom: 60.6118 
forces: 3156.608949 0.159404 -960.858876 
Drag coefficient (area added manually): 0.880965 
torque (ref. CG): -0.223165 (roll) -1441.986616 (pitch) -0.972362 (yaw) 
----------------------------------------------------- 
step 37, time 0.005284, maxvel 30.000000, total vol 183256, vol(u>maxvel) 7.7789, cell count 69915
bounding box (containing cells with vel>maxvel): xmin -12.2586 -1.86011 -0.477237, xmax 0.261512 1.86011 4.10437m 
bounding box of vehicle: xmin -12.2 -1.30026 -1.92988e-17, xmax 9.54098e-18 1.30026 3.60025m 
gts area: 163.362 
yplus max: 297.829, yplus min: 7.76178 
position of yplus max: -11.6111 1.3 2.33007 
yplus prom: 60.6143 
forces: 3156.907429 0.159783 -961.205119 
Drag coefficient (area added manually): 0.881049 
torque (ref. CG): -0.223696 (roll) -1443.680826 (pitch) -0.974677 (yaw) 
----------------------------------------------------- 
step 38, time 0.005426, maxvel 30.000000, total vol 183256, vol(u>maxvel) 7.77106, cell count 69882
bounding box (containing cells with vel>maxvel): xmin -12.2586 -1.86011 -0.477237, xmax 0.261512 1.86011 4.10437m 
bounding box of vehicle: xmin -12.2 -1.30026 -1.92988e-17, xmax 9.54098e-18 1.30026 3.60025m 
gts area: 163.362 
yplus max: 297.577, yplus min: 7.75211 
position of yplus max: -11.6111 1.3 2.33007 
yplus prom: 60.6169 
forces: 3157.181646 0.157021 -961.532481 
Drag coefficient (area added manually): 0.881125 
torque (ref. CG): -0.219829 (roll) -1445.293832 (pitch) -0.957827 (yaw) 
----------------------------------------------------- 
step 39, time 0.005569, maxvel 30.000000, total vol 183256, vol(u>maxvel) 7.76805, cell count 69875
bounding box (containing cells with vel>maxvel): xmin -12.2586 -1.86011 -0.477237, xmax 0.261606 1.86011 4.10437m 
bounding box of vehicle: xmin -12.2 -1.30026 -1.92988e-17, xmax 9.54098e-18 1.30026 3.60025m 
gts area: 163.362 
yplus max: 297.327, yplus min: 7.74235 
position of yplus max: -11.6111 1.3 2.33007 
yplus prom: 60.6197 
forces: 3157.519505 0.166603 -961.823819 
Drag coefficient (area added manually): 0.881219 
torque (ref. CG): -0.233244 (roll) -1446.597991 (pitch) -1.016276 (yaw) 
----------------------------------------------------- 
step 40, time 0.005712, maxvel 30.000000, total vol 183256, vol(u>maxvel) 7.76973, cell count 69896
bounding box (containing cells with vel>maxvel): xmin -12.2586 -1.85982 -0.477237, xmax 0.261606 1.85982 4.10437m 
bounding box of vehicle: xmin -12.2 -1.30026 -1.92988e-17, xmax 9.54098e-18 1.30026 3.60025m 
gts area: 163.362 
yplus max: 297.077, yplus min: 7.73252 
position of yplus max: -11.6111 1.3 2.33007 
yplus prom: 60.6225 
forces: 3157.769535 0.165063 -962.123613 
Drag coefficient (area added manually): 0.881289 
torque (ref. CG): -0.231089 (roll) -1448.076693 (pitch) -1.006887 (yaw) 
----------------------------------------------------- 
step 41, time 0.005855, maxvel 30.000000, total vol 183256, vol(u>maxvel) 7.7703, cell count 69926
bounding box (containing cells with vel>maxvel): xmin -12.2586 -1.85982 -0.477237, xmax 0.325761 1.85982 4.10437m 
bounding box of vehicle: xmin -12.2 -1.30026 -1.92988e-17, xmax 9.54098e-18 1.30026 3.60025m 
gts area: 163.362 
yplus max: 296.828, yplus min: 7.47503 
position of yplus max: -11.6111 1.3 2.33007 
yplus prom: 60.6255 
forces: 3157.984533 0.167357 -962.384665 
Drag coefficient (area added manually): 0.881349 
torque (ref. CG): -0.234299 (roll) -1449.368112 (pitch) -1.020875 (yaw) 
----------------------------------------------------- 
step 42, time 0.005998, maxvel 30.000000, total vol 183256, vol(u>maxvel) 7.76474, cell count 69921
bounding box (containing cells with vel>maxvel): xmin -12.2586 -1.85982 -0.477237, xmax 0.326031 1.85982 4.10437m 
bounding box of vehicle: xmin -12.2 -1.30026 -1.92988e-17, xmax 9.54098e-18 1.30026 3.60025m 
gts area: 163.362 
yplus max: 296.581, yplus min: 5.25586 
position of yplus max: -11.6111 1.3 2.33007 
yplus prom: 60.6285 
forces: 3158.351016 0.166384 -962.638925 
Drag coefficient (area added manually): 0.881452 
torque (ref. CG): -0.232938 (roll) -1450.406017 (pitch) -1.014945 (yaw) 
----------------------------------------------------- 
step 43, time 0.006140, maxvel 30.000000, total vol 183256, vol(u>maxvel) 7.75806, cell count 69968
bounding box (containing cells with vel>maxvel): xmin -12.2586 -1.85982 -0.477237, xmax 0.326155 1.85982 4.10437m 
bounding box of vehicle: xmin -12.2 -1.30026 -1.92988e-17, xmax 9.54098e-18 1.30026 3.60025m 
gts area: 163.362 
yplus max: 296.335, yplus min: 3.13115 
position of yplus max: -11.6111 1.3 2.33007 
yplus prom: 60.6317 
forces: 3158.860240 0.170001 -962.824766 
Drag coefficient (area added manually): 0.881594 
torque (ref. CG): -0.238001 (roll) -1450.826739 (pitch) -1.037005 (yaw) 
----------------------------------------------------- 
step 44, time 0.006283, maxvel 30.000000, total vol 183256, vol(u>maxvel) 7.75202, cell count 70015
bounding box (containing cells with vel>maxvel): xmin -12.2586 -1.85952 -0.477237, xmax 0.326274 1.85952 4.04782m 
bounding box of vehicle: xmin -12.2 -1.30026 -1.92988e-17, xmax 9.54098e-18 1.30026 3.60025m 
gts area: 163.362 
yplus max: 296.092, yplus min: 5.81586 
position of yplus max: -11.6111 1.3 2.33007 
yplus prom: 60.6352 
forces: 3159.374321 0.176361 -963.003033 
Drag coefficient (area added manually): 0.881737 
torque (ref. CG): -0.246906 (roll) -1451.194450 (pitch) -1.075805 (yaw) 
----------------------------------------------------- 
step 45, time 0.006426, maxvel 30.000000, total vol 183256, vol(u>maxvel) 7.74923, cell count 70039
bounding box (containing cells with vel>maxvel): xmin -12.2586 -1.85952 -0.477237, xmax 0.327541 1.85952 4.04782m 
bounding box of vehicle: xmin -12.2 -1.30026 -1.92988e-17, xmax 9.54098e-18 1.30026 3.60025m 
gts area: 163.362 
yplus max: 295.85, yplus min: 7.5867 
position of yplus max: -11.6111 1.3 2.33007 
yplus prom: 60.6388 
forces: 3159.821571 0.178876 -963.161430 
Drag coefficient (area added manually): 0.881862 
torque (ref. CG): -0.250426 (roll) -1451.534522 (pitch) -1.091141 (yaw) 
----------------------------------------------------- 
step 46, time 0.006569, maxvel 30.000000, total vol 183256, vol(u>maxvel) 7.7536, cell count 70041
bounding box (containing cells with vel>maxvel): xmin -12.2586 -1.8592 -0.477237, xmax 0.327811 1.8592 4.04782m 
bounding box of vehicle: xmin -12.2 -1.30026 -1.92988e-17, xmax 9.54098e-18 1.30026 3.60025m 
gts area: 163.362 
yplus max: 295.611, yplus min: 7.67195 
position of yplus max: -11.6111 1.3 2.33007 
yplus prom: 60.6425 
forces: 3160.176416 0.180173 -963.319559 
Drag coefficient (area added manually): 0.881961 
torque (ref. CG): -0.252242 (roll) -1452.002327 (pitch) -1.099053 (yaw) 
----------------------------------------------------- 
step 47, time 0.006712, maxvel 30.000000, total vol 183256, vol(u>maxvel) 7.75346, cell count 70034
bounding box (containing cells with vel>maxvel): xmin -12.2586 -1.8592 -0.477237, xmax 0.327935 1.8592 4.04782m 
bounding box of vehicle: xmin -12.2 -1.30026 -1.92988e-17, xmax 9.54098e-18 1.30026 3.60025m 
gts area: 163.362 
yplus max: 295.374, yplus min: 7.6616 
position of yplus max: -11.6111 1.3 2.33007 
yplus prom: 60.6463 
forces: 3160.479766 0.182567 -963.472482 
Drag coefficient (area added manually): 0.882046 
torque (ref. CG): -0.255593 (roll) -1452.510466 (pitch) -1.113656 (yaw) 
----------------------------------------------------- 
step 48, time 0.006854, maxvel 30.000000, total vol 183256, vol(u>maxvel) 7.74381, cell count 70000
bounding box (containing cells with vel>maxvel): xmin -12.2586 -1.85887 -0.477237, xmax 0.328054 1.85887 4.04782m 
bounding box of vehicle: xmin -12.2 -1.30026 -1.92988e-17, xmax 9.54098e-18 1.30026 3.60025m 
gts area: 163.362 
yplus max: 295.14, yplus min: 7.65119 
position of yplus max: -11.6111 1.3 2.33007 
yplus prom: 60.6503 
forces: 3160.805953 0.187190 -963.613681 
Drag coefficient (area added manually): 0.882137 
torque (ref. CG): -0.262066 (roll) -1452.915117 (pitch) -1.141860 (yaw) 
----------------------------------------------------- 
step 49, time 0.006997, maxvel 30.000000, total vol 183256, vol(u>maxvel) 7.7371, cell count 69983
bounding box (containing cells with vel>maxvel): xmin -12.2586 -1.85587 -0.477237, xmax 0.328167 1.85587 4.04782m 
bounding box of vehicle: xmin -12.2 -1.30026 -1.92988e-17, xmax 9.54098e-18 1.30026 3.60025m 
gts area: 163.362 
yplus max: 294.909, yplus min: 7.64071 
position of yplus max: -11.6111 1.3 2.33007 
yplus prom: 60.6543 
forces: 3161.097899 0.187592 -963.747917 
Drag coefficient (area added manually): 0.882218 
torque (ref. CG): -0.262629 (roll) -1453.325232 (pitch) -1.144314 (yaw) 
----------------------------------------------------- 
step 50, time 0.007140, maxvel 30.000000, total vol 183256, vol(u>maxvel) 7.73854, cell count 70003
bounding box (containing cells with vel>maxvel): xmin -12.2586 -1.85587 -0.477237, xmax 0.328275 1.85587 4.04782m 
bounding box of vehicle: xmin -12.2 -1.30026 -1.92988e-17, xmax 9.54098e-18 1.30026 3.60025m 
gts area: 163.362 
yplus max: 294.68, yplus min: 7.63016 
position of yplus max: -11.6111 1.3 2.33007 
yplus prom: 60.6585 
forces: 3161.458266 0.189032 -963.868531 
Drag coefficient (area added manually): 0.882319 
torque (ref. CG): -0.264644 (roll) -1453.556468 (pitch) -1.153092 (yaw) 
----------------------------------------------------- 
step 51, time 0.007283, maxvel 30.000000, total vol 183256, vol(u>maxvel) 7.73421, cell count 70005
bounding box (containing cells with vel>maxvel): xmin -12.2586 -1.85587 -0.477237, xmax 0.328275 1.85587 4.04782m 
bounding box of vehicle: xmin -12.2 -1.30026 -1.92988e-17, xmax 9.54098e-18 1.30026 3.60025m 
gts area: 163.362 
yplus max: 294.456, yplus min: 6.51864 
position of yplus max: -11.6111 1.3 2.33007 
yplus prom: 60.6629 
forces: 3161.885736 0.190556 -963.948067 
Drag coefficient (area added manually): 0.882438 
torque (ref. CG): -0.266778 (roll) -1453.443178 (pitch) -1.162389 (yaw) 
----------------------------------------------------- 
step 52, time 0.007426, maxvel 30.000000, total vol 183256, vol(u>maxvel) 7.72965, cell count 70025
bounding box (containing cells with vel>maxvel): xmin -12.2586 -1.85587 -0.477237, xmax 0.32838 1.85587 4.04782m 
bounding box of vehicle: xmin -12.2 -1.30026 -1.92988e-17, xmax 9.54098e-18 1.30026 3.60025m 
gts area: 163.362 
yplus max: 294.234, yplus min: 4.62034 
position of yplus max: -11.6111 1.3 2.33007 
yplus prom: 60.6674 
forces: 3162.284168 0.192045 -964.004502 
Drag coefficient (area added manually): 0.882549 
torque (ref. CG): -0.268862 (roll) -1453.229628 (pitch) -1.171472 (yaw) 
----------------------------------------------------- 
step 53, time 0.007568, maxvel 30.000000, total vol 183256, vol(u>maxvel) 7.72485, cell count 70047
bounding box (containing cells with vel>maxvel): xmin -12.2586 -1.85565 -0.477237, xmax 0.32838 1.85565 4.04782m 
bounding box of vehicle: xmin -12.2 -1.30026 -1.92988e-17, xmax 9.54098e-18 1.30026 3.60025m 
gts area: 163.362 
yplus max: 294.017, yplus min: 3.52695 
position of yplus max: -11.6111 1.3 2.33007 
yplus prom: 60.6722 
forces: 3162.586827 0.192254 -964.045189 
Drag coefficient (area added manually): 0.882634 
torque (ref. CG): -0.269156 (roll) -1453.054096 (pitch) -1.172749 (yaw) 
----------------------------------------------------- 
step 54, time 0.007711, maxvel 30.000000, total vol 183256, vol(u>maxvel) 7.72453, cell count 70037
bounding box (containing cells with vel>maxvel): xmin -12.2586 -1.85565 -0.477237, xmax 0.328481 1.85565 4.04782m 
bounding box of vehicle: xmin -12.2 -1.30026 -1.92988e-17, xmax 9.54098e-18 1.30026 3.60025m 
gts area: 163.362 
yplus max: 293.803, yplus min: 4.36279 
position of yplus max: -11.6111 1.3 2.33007 
yplus prom: 60.6774 
forces: 3162.768371 0.193900 -964.075630 
Drag coefficient (area added manually): 0.882684 
torque (ref. CG): -0.271460 (roll) -1452.985625 (pitch) -1.182790 (yaw) 
----------------------------------------------------- 
step 55, time 0.007854, maxvel 30.000000, total vol 183256, vol(u>maxvel) 7.72382, cell count 70011
bounding box (containing cells with vel>maxvel): xmin -12.2586 -1.85565 -0.477237, xmax 0.328481 1.85565 4.04782m 
bounding box of vehicle: xmin -12.2 -1.30026 -1.92988e-17, xmax 9.54098e-18 1.30026 3.60025m 
gts area: 163.362 
yplus max: 293.594, yplus min: 4.30895 
position of yplus max: -11.6111 1.3 2.33007 
yplus prom: 60.6835 
forces: 3162.818979 0.191612 -964.094195 
Drag coefficient (area added manually): 0.882698 
torque (ref. CG): -0.268257 (roll) -1453.028018 (pitch) -1.168834 (yaw) 
----------------------------------------------------- 
step 56, time 0.007997, maxvel 30.000000, total vol 183256, vol(u>maxvel) 7.71937, cell count 69979
bounding box (containing cells with vel>maxvel): xmin -12.2586 -1.85565 -0.477237, xmax 0.328481 1.85565 4.04782m 
bounding box of vehicle: xmin -12.2 -1.30026 -1.92988e-17, xmax 9.54098e-18 1.30026 3.60025m 
gts area: 163.362 
yplus max: 293.388, yplus min: 6.81356 
position of yplus max: -11.6111 1.3 2.33007 
yplus prom: 60.6906 
forces: 3162.744010 0.196223 -964.110896 
Drag coefficient (area added manually): 0.882678 
torque (ref. CG): -0.274712 (roll) -1453.234850 (pitch) -1.196960 (yaw) 
----------------------------------------------------- 
step 57, time 0.008140, maxvel 30.000000, total vol 183256, vol(u>maxvel) 7.71511, cell count 69944
bounding box (containing cells with vel>maxvel): xmin -12.2586 -1.85565 -0.477237, xmax 0.32858 1.85565 4.04782m 
bounding box of vehicle: xmin -12.2 -1.30026 -1.92988e-17, xmax 9.54098e-18 1.30026 3.60025m 
gts area: 163.362 
yplus max: 293.187, yplus min: 7.55451 
position of yplus max: -11.6111 1.3 2.33007 
yplus prom: 60.6979 
forces: 3162.556090 0.192387 -964.109908 
Drag coefficient (area added manually): 0.882625 
torque (ref. CG): -0.269342 (roll) -1453.491912 (pitch) -1.173563 (yaw) 
----------------------------------------------------- 
step 58, time 0.008282, maxvel 30.000000, total vol 183256, vol(u>maxvel) 7.70354, cell count 69925
bounding box (containing cells with vel>maxvel): xmin -12.2586 -1.85565 -0.477237, xmax 0.32858 1.85565 4.04782m 
bounding box of vehicle: xmin -12.2 -1.30026 -1.92988e-17, xmax 9.54098e-18 1.30026 3.60025m 
gts area: 163.362 
yplus max: 292.99, yplus min: 7.54346 
position of yplus max: -11.6111 1.3 2.33007 
yplus prom: 60.7056 
forces: 3162.395801 0.194201 -964.075085 
Drag coefficient (area added manually): 0.882580 
torque (ref. CG): -0.271881 (roll) -1453.503898 (pitch) -1.184623 (yaw) 
----------------------------------------------------- 
step 59, time 0.008425, maxvel 30.000000, total vol 183256, vol(u>maxvel) 7.7088, cell count 69914
bounding box (containing cells with vel>maxvel): xmin -12.2586 -1.85565 -0.477237, xmax 0.32868 1.85565 4.04782m 
bounding box of vehicle: xmin -12.2 -1.30026 -1.92988e-17, xmax 9.54098e-18 1.30026 3.60025m 
gts area: 163.362 
yplus max: 292.798, yplus min: 7.21355 
position of yplus max: -11.6111 1.3 2.33007 
yplus prom: 60.7135 
forces: 3162.330117 0.196495 -964.025906 
Drag coefficient (area added manually): 0.882562 
torque (ref. CG): -0.275092 (roll) -1453.295862 (pitch) -1.198617 (yaw) 
----------------------------------------------------- 
step 60, time 0.008568, maxvel 30.000000, total vol 183256, vol(u>maxvel) 7.70696, cell count 69859
bounding box (containing cells with vel>maxvel): xmin -12.2586 -1.85565 -0.477237, xmax 0.33186 1.85565 4.04782m 
bounding box of vehicle: xmin -12.2 -1.30026 -1.92988e-17, xmax 9.54098e-18 1.30026 3.60025m 
gts area: 163.362 
yplus max: 292.611, yplus min: 5.64939 
position of yplus max: -11.6111 1.3 2.33007 
yplus prom: 60.7216 
forces: 3162.399638 0.191176 -963.956660 
Drag coefficient (area added manually): 0.882581 
torque (ref. CG): -0.267646 (roll) -1452.776133 (pitch) -1.166173 (yaw) 
----------------------------------------------------- 
step 61, time 0.008711, maxvel 30.000000, total vol 183256, vol(u>maxvel) 7.70474, cell count 69828
bounding box (containing cells with vel>maxvel): xmin -12.2586 -1.85542 -0.477237, xmax 0.331862 1.85542 4.04782m 
bounding box of vehicle: xmin -12.2 -1.30026 -1.92988e-17, xmax 9.54098e-18 1.30026 3.60025m 
gts area: 163.362 
yplus max: 292.429, yplus min: 3.73914 
position of yplus max: -11.6111 1.3 2.33007 
yplus prom: 60.7299 
forces: 3162.537840 0.195282 -963.862625 
Drag coefficient (area added manually): 0.882620 
torque (ref. CG): -0.273395 (roll) -1452.009033 (pitch) -1.191223 (yaw) 
----------------------------------------------------- 
step 62, time 0.008854, maxvel 30.000000, total vol 183256, vol(u>maxvel) 7.70223, cell count 69834
bounding box (containing cells with vel>maxvel): xmin -12.2586 -1.85542 -0.477237, xmax 0.331866 1.85542 4.04782m 
bounding box of vehicle: xmin -12.2 -1.30026 -1.92988e-17, xmax 9.54098e-18 1.30026 3.60025m 
gts area: 163.362 
yplus max: 292.252, yplus min: 3.93628 
position of yplus max: -11.6111 1.3 2.33007 
yplus prom: 60.7384 
forces: 3162.661879 0.190057 -963.744954 
Drag coefficient (area added manually): 0.882655 
torque (ref. CG): -0.266080 (roll) -1451.117585 (pitch) -1.159349 (yaw) 
----------------------------------------------------- 
step 63, time 0.008996, maxvel 30.000000, total vol 183256, vol(u>maxvel) 7.69744, cell count 69796
bounding box (containing cells with vel>maxvel): xmin -12.2586 -1.85542 -0.477237, xmax 0.331873 1.85542 4.04782m 
bounding box of vehicle: xmin -12.2 -1.30026 -1.92988e-17, xmax 9.54098e-18 1.30026 3.60025m 
gts area: 163.362 
yplus max: 292.079, yplus min: 5.82798 
position of yplus max: -11.6111 1.3 2.33007 
yplus prom: 60.7473 
forces: 3162.730814 0.189435 -963.627289 
Drag coefficient (area added manually): 0.882674 
torque (ref. CG): -0.265209 (roll) -1450.303322 (pitch) -1.155553 (yaw) 
----------------------------------------------------- 
step 64, time 0.009139, maxvel 30.000000, total vol 183256, vol(u>maxvel) 7.68956, cell count 69755
bounding box (containing cells with vel>maxvel): xmin -12.2586 -1.85542 -0.477237, xmax 0.331873 1.85542 4.04782m 
bounding box of vehicle: xmin -12.2 -1.30026 -1.92988e-17, xmax 9.54098e-18 1.30026 3.60025m 
gts area: 163.362 
yplus max: 291.913, yplus min: 7.36144 
position of yplus max: -11.6111 1.3 2.33007 
yplus prom: 60.7564 
forces: 3162.714886 0.186884 -963.505256 
Drag coefficient (area added manually): 0.882669 
torque (ref. CG): -0.261638 (roll) -1449.581223 (pitch) -1.139993 (yaw) 
----------------------------------------------------- 
step 65, time 0.009282, maxvel 30.000000, total vol 183256, vol(u>maxvel) 7.68466, cell count 69745
bounding box (containing cells with vel>maxvel): xmin -12.2586 -1.85542 -0.477237, xmax 0.331873 1.85542 4.04782m 
bounding box of vehicle: xmin -12.2 -1.30026 -1.92988e-17, xmax 9.54098e-18 1.30026 3.60025m 
gts area: 163.362 
yplus max: 291.751, yplus min: 7.46459 
position of yplus max: -11.6111 1.3 2.33007 
yplus prom: 60.7656 
forces: 3162.593788 0.183119 -963.383475 
Drag coefficient (area added manually): 0.882636 
torque (ref. CG): -0.256367 (roll) -1449.007896 (pitch) -1.117026 (yaw) 
----------------------------------------------------- 
step 66, time 0.009425, maxvel 30.000000, total vol 183256, vol(u>maxvel) 7.68852, cell count 69812
bounding box (containing cells with vel>maxvel): xmin -12.2586 -1.85542 -0.477237, xmax 0.331885 1.85542 4.04782m 
bounding box of vehicle: xmin -12.2 -1.30026 -1.92988e-17, xmax 9.54098e-18 1.30026 3.60025m 
gts area: 163.362 
yplus max: 291.595, yplus min: 7.45312 
position of yplus max: -11.6111 1.3 2.33007 
yplus prom: 60.7749 
forces: 3162.377948 0.178384 -963.260394 
Drag coefficient (area added manually): 0.882575 
torque (ref. CG): -0.249738 (roll) -1448.559277 (pitch) -1.088145 (yaw) 
----------------------------------------------------- 
step 67, time 0.009568, maxvel 30.000000, total vol 183256, vol(u>maxvel) 7.6865, cell count 69844
bounding box (containing cells with vel>maxvel): xmin -12.2586 -1.85518 -0.477237, xmax 0.331885 1.85518 4.04782m 
bounding box of vehicle: xmin -12.2 -1.30026 -1.92988e-17, xmax 9.54098e-18 1.30026 3.60025m 
gts area: 163.362 
yplus max: 291.444, yplus min: 7.44161 
position of yplus max: -11.6111 1.3 2.33007 
yplus prom: 60.7843 
forces: 3162.062889 0.174474 -963.132612 
Drag coefficient (area added manually): 0.882487 
torque (ref. CG): -0.244264 (roll) -1448.220889 (pitch) -1.064293 (yaw) 
----------------------------------------------------- 
step 68, time 0.009710, maxvel 30.000000, total vol 183256, vol(u>maxvel) 7.67571, cell count 69846
bounding box (containing cells with vel>maxvel): xmin -12.2586 -1.85518 -0.477237, xmax 0.331902 1.85518 4.04782m 
bounding box of vehicle: xmin -12.2 -1.30026 -1.92988e-17, xmax 9.54098e-18 1.30026 3.60025m 
gts area: 163.362 
yplus max: 291.299, yplus min: 7.43004 
position of yplus max: -11.6111 1.3 2.33007 
yplus prom: 60.7939 
forces: 3161.647945 0.173896 -963.002427 
Drag coefficient (area added manually): 0.882372 
torque (ref. CG): -0.243455 (roll) -1448.007678 (pitch) -1.060766 (yaw) 
----------------------------------------------------- 
step 69, time 0.009853, maxvel 30.000000, total vol 183256, vol(u>maxvel) 7.66422, cell count 69833
bounding box (containing cells with vel>maxvel): xmin -12.2586 -1.85518 -0.477237, xmax 0.331902 1.85518 4.04782m 
bounding box of vehicle: xmin -12.2 -1.30026 -1.92988e-17, xmax 9.54098e-18 1.30026 3.60025m 
gts area: 163.362 
yplus max: 291.159, yplus min: 7.41844 
position of yplus max: -11.6111 1.3 2.33007 
yplus prom: 60.8035 
forces: 3161.132007 0.167060 -962.870981 
Drag coefficient (area added manually): 0.882228 
torque (ref. CG): -0.233884 (roll) -1447.928171 (pitch) -1.019067 (yaw) 
----------------------------------------------------- 
step 70, time 0.009996, maxvel 30.000000, total vol 183256, vol(u>maxvel) 7.65174, cell count 69832
bounding box (containing cells with vel>maxvel): xmin -12.2586 -1.85518 -0.477237, xmax 0.331902 1.85518 4.04782m 
bounding box of vehicle: xmin -12.2 -1.30026 -1.92988e-17, xmax 9.54098e-18 1.30026 3.60025m 
gts area: 163.362 
yplus max: 291.025, yplus min: 7.40679 
position of yplus max: -11.6111 1.3 2.33007 
yplus prom: 60.8133 
forces: 3160.536634 0.158902 -962.731190 
Drag coefficient (area added manually): 0.882062 
torque (ref. CG): -0.222463 (roll) -1447.908970 (pitch) -0.969304 (yaw) 
----------------------------------------------------- 
step 71, time 0.010139, maxvel 30.000000, total vol 183256, vol(u>maxvel) 7.64907, cell count 69812
bounding box (containing cells with vel>maxvel): xmin -12.2586 -1.85518 -0.477237, xmax 0.331902 1.85518 4.04782m 
bounding box of vehicle: xmin -12.2 -1.30026 -1.92988e-17, xmax 9.54098e-18 1.30026 3.60025m 
gts area: 163.362 
yplus max: 290.897, yplus min: 7.3951 
position of yplus max: -11.6111 1.3 2.33007 
yplus prom: 60.8231 
forces: 3159.915550 0.154466 -962.592532 
Drag coefficient (area added manually): 0.881888 
torque (ref. CG): -0.216252 (roll) -1447.932676 (pitch) -0.942241 (yaw) 
----------------------------------------------------- 
step 72, time 0.010282, maxvel 30.000000, total vol 183256, vol(u>maxvel) 7.64161, cell count 69784
bounding box (containing cells with vel>maxvel): xmin -12.2586 -1.85493 -0.477237, xmax 0.331928 1.85493 4.04782m 
bounding box of vehicle: xmin -12.2 -1.30026 -1.92988e-17, xmax 9.54098e-18 1.30026 3.60025m 
gts area: 163.362 
yplus max: 290.774, yplus min: 6.6625 
position of yplus max: -11.6111 1.3 2.33007 
yplus prom: 60.8331 
forces: 3159.417426 0.148984 -962.408718 
Drag coefficient (area added manually): 0.881749 
torque (ref. CG): -0.208577 (roll) -1447.508783 (pitch) -0.908802 (yaw) 
----------------------------------------------------- 
step 73, time 0.010424, maxvel 30.000000, total vol 183256, vol(u>maxvel) 7.63792, cell count 69790
bounding box (containing cells with vel>maxvel): xmin -12.2586 -1.85493 -0.477237, xmax 0.331928 1.85493 4.04782m 
bounding box of vehicle: xmin -12.2 -1.30026 -1.92988e-17, xmax 9.54098e-18 1.30026 3.60025m 
gts area: 163.362 
yplus max: 290.657, yplus min: 5.76885 
position of yplus max: -11.6111 1.3 2.33007 
yplus prom: 60.8432 
forces: 3158.937654 0.144824 -962.218761 
Drag coefficient (area added manually): 0.881615 
torque (ref. CG): -0.202754 (roll) -1447.021723 (pitch) -0.883428 (yaw) 
----------------------------------------------------- 
step 74, time 0.010567, maxvel 30.000000, total vol 183256, vol(u>maxvel) 7.64146, cell count 69814
bounding box (containing cells with vel>maxvel): xmin -12.2586 -1.85493 -0.477237, xmax 0.331928 1.85493 4.04782m 
bounding box of vehicle: xmin -12.2 -1.30026 -1.92988e-17, xmax 9.54098e-18 1.30026 3.60025m 
gts area: 163.362 
yplus max: 290.546, yplus min: 5.28518 
position of yplus max: -11.6111 1.3 2.33007 
yplus prom: 60.8533 
forces: 3158.422592 0.129924 -962.018319 
Drag coefficient (area added manually): 0.881472 
torque (ref. CG): -0.181893 (roll) -1446.520117 (pitch) -0.792535 (yaw) 
----------------------------------------------------- 
step 75, time 0.010710, maxvel 30.000000, total vol 183256, vol(u>maxvel) 7.63399, cell count 69804
bounding box (containing cells with vel>maxvel): xmin -12.2586 -1.85493 -0.477237, xmax 0.331928 1.85493 4.04782m 
bounding box of vehicle: xmin -12.2 -1.30026 -1.92988e-17, xmax 9.54098e-18 1.30026 3.60025m 
gts area: 163.362 
yplus max: 290.44, yplus min: 5.60942 
position of yplus max: -11.6111 1.3 2.33007 
yplus prom: 60.8637 
forces: 3157.861323 0.125309 -961.830966 
Drag coefficient (area added manually): 0.881315 
torque (ref. CG): -0.175433 (roll) -1446.163042 (pitch) -0.764387 (yaw) 
----------------------------------------------------- 
step 76, time 0.010853, maxvel 30.000000, total vol 183256, vol(u>maxvel) 7.62685, cell count 69798
bounding box (containing cells with vel>maxvel): xmin -12.2586 -1.85466 -0.477237, xmax 0.331928 1.85466 4.04782m 
bounding box of vehicle: xmin -12.2 -1.30026 -1.92988e-17, xmax 9.54098e-18 1.30026 3.60025m 
gts area: 163.362 
yplus max: 290.341, yplus min: 6.45677 
position of yplus max: -11.6111 1.3 2.33007 
yplus prom: 60.8742 
forces: 3157.235875 0.117171 -961.631109 
Drag coefficient (area added manually): 0.881140 
torque (ref. CG): -0.164039 (roll) -1445.819541 (pitch) -0.714742 (yaw) 
----------------------------------------------------- 
step 77, time 0.010996, maxvel 30.000000, total vol 183256, vol(u>maxvel) 7.61355, cell count 69802
bounding box (containing cells with vel>maxvel): xmin -12.2586 -1.85466 -0.477237, xmax 0.331928 1.85466 4.04782m 
bounding box of vehicle: xmin -12.2 -1.30026 -1.92988e-17, xmax 9.54098e-18 1.30026 3.60025m 
gts area: 163.362 
yplus max: 290.247, yplus min: 5.84187 
position of yplus max: -11.6111 1.3 2.33007 
yplus prom: 60.8848 
forces: 3156.532143 0.111969 -961.434692 
Drag coefficient (area added manually): 0.880944 
torque (ref. CG): -0.156756 (roll) -1445.606619 (pitch) -0.683010 (yaw) 
----------------------------------------------------- 
step 78, time 0.011138, maxvel 30.000000, total vol 183256, vol(u>maxvel) 7.61146, cell count 69849
bounding box (containing cells with vel>maxvel): xmin -12.2586 -1.85439 -0.477237, xmax 0.331965 1.85439 4.04782m 
bounding box of vehicle: xmin -12.2 -1.30026 -1.92988e-17, xmax 9.54098e-18 1.30026 3.60025m 
gts area: 163.362 
yplus max: 290.158, yplus min: 4.17166 
position of yplus max: -11.6111 1.3 2.33007 
yplus prom: 60.8957 
forces: 3155.738397 0.100267 -961.235647 
Drag coefficient (area added manually): 0.880722 
torque (ref. CG): -0.140373 (roll) -1445.503691 (pitch) -0.611627 (yaw) 
----------------------------------------------------- 
step 79, time 0.011281, maxvel 30.000000, total vol 183256, vol(u>maxvel) 7.6113, cell count 69837
bounding box (containing cells with vel>maxvel): xmin -12.2586 -1.79915 -0.477237, xmax 0.331965 1.79915 4.04782m 
bounding box of vehicle: xmin -12.2 -1.30026 -1.92988e-17, xmax 9.54098e-18 1.30026 3.60025m 
gts area: 163.362 
yplus max: 290.076, yplus min: 4.66143 
position of yplus max: -11.6111 1.3 2.33007 
yplus prom: 60.907 
forces: 3154.871726 0.091166 -961.039847 
Drag coefficient (area added manually): 0.880481 
torque (ref. CG): -0.127632 (roll) -1445.522652 (pitch) -0.556113 (yaw) 
----------------------------------------------------- 
step 80, time 0.011424, maxvel 30.000000, total vol 183256, vol(u>maxvel) 7.60966, cell count 69827
bounding box (containing cells with vel>maxvel): xmin -12.2586 -1.79915 -0.477237, xmax 0.331965 1.79915 4.04782m 
bounding box of vehicle: xmin -12.2 -1.30026 -1.92988e-17, xmax 9.54098e-18 1.30026 3.60025m 
gts area: 163.362 
yplus max: 289.999, yplus min: 6.37962 
position of yplus max: -11.6111 1.3 2.33007 
yplus prom: 60.9187 
forces: 3153.944358 0.083564 -960.841293 
Drag coefficient (area added manually): 0.880222 
torque (ref. CG): -0.116990 (roll) -1445.609787 (pitch) -0.509741 (yaw) 
----------------------------------------------------- 
step 81, time 0.011567, maxvel 30.000000, total vol 183256, vol(u>maxvel) 7.60552, cell count 69800
bounding box (containing cells with vel>maxvel): xmin -12.2586 -1.79881 -0.477237, xmax 0.331965 1.79881 4.04782m 
bounding box of vehicle: xmin -12.2 -1.30026 -1.92988e-17, xmax 9.54098e-18 1.30026 3.60025m 
gts area: 163.362 
yplus max: 289.927, yplus min: 6.65508 
position of yplus max: -11.6111 1.3 2.33007 
yplus prom: 60.9306 
forces: 3152.963742 0.075267 -960.648219 
Drag coefficient (area added manually): 0.879948 
torque (ref. CG): -0.105373 (roll) -1445.804895 (pitch) -0.459126 (yaw) 
----------------------------------------------------- 
step 82, time 0.011710, maxvel 30.000000, total vol 183256, vol(u>maxvel) 7.59866, cell count 69771
bounding box (containing cells with vel>maxvel): xmin -12.2586 -1.79881 -0.477237, xmax 0.331965 1.79881 4.04782m 
bounding box of vehicle: xmin -12.2 -1.30026 -1.92988e-17, xmax 9.54098e-18 1.30026 3.60025m 
gts area: 163.362 
yplus max: 289.861, yplus min: 5.63964 
position of yplus max: -11.6111 1.3 2.33007 
yplus prom: 60.9426 
forces: 3151.938756 0.067093 -960.455046 
Drag coefficient (area added manually): 0.879662 
torque (ref. CG): -0.093930 (roll) -1446.061523 (pitch) -0.409265 (yaw) 
----------------------------------------------------- 
step 83, time 0.011852, maxvel 30.000000, total vol 183256, vol(u>maxvel) 7.5962, cell count 69747
bounding box (containing cells with vel>maxvel): xmin -12.2586 -1.79881 -0.477237, xmax 0.331965 1.79881 4.04782m 
bounding box of vehicle: xmin -12.2 -1.30026 -1.92988e-17, xmax 9.54098e-18 1.30026 3.60025m 
gts area: 163.362 
yplus max: 289.801, yplus min: 5.15069 
position of yplus max: -11.6111 1.3 2.33007 
yplus prom: 60.9547 
forces: 3150.875064 0.059205 -960.265749 
Drag coefficient (area added manually): 0.879365 
torque (ref. CG): -0.082888 (roll) -1446.395977 (pitch) -0.361153 (yaw) 
----------------------------------------------------- 
step 84, time 0.011995, maxvel 30.000000, total vol 183256, vol(u>maxvel) 7.59629, cell count 69731
bounding box (containing cells with vel>maxvel): xmin -12.2586 -1.79881 -0.477237, xmax 0.331965 1.79881 4.04782m 
bounding box of vehicle: xmin -12.2 -1.30026 -1.92988e-17, xmax 9.54098e-18 1.30026 3.60025m 
gts area: 163.362 
yplus max: 289.746, yplus min: 5.68024 
position of yplus max: -11.6111 1.3 2.33007 
yplus prom: 60.9668 
forces: 3149.775929 0.057929 -960.099102 
Drag coefficient (area added manually): 0.879058 
torque (ref. CG): -0.081101 (roll) -1446.918222 (pitch) -0.353369 (yaw) 
----------------------------------------------------- 
step 85, time 0.012138, maxvel 30.000000, total vol 183256, vol(u>maxvel) 7.59249, cell count 69730
bounding box (containing cells with vel>maxvel): xmin -12.2586 -1.79845 -0.477237, xmax 0.332019 1.79845 4.04782m 
bounding box of vehicle: xmin -12.2 -1.30026 -1.92988e-17, xmax 9.54098e-18 1.30026 3.60025m 
gts area: 163.362 
yplus max: 289.696, yplus min: 6.70863 
position of yplus max: -11.6111 1.3 2.33007 
yplus prom: 60.9791 
forces: 3148.659141 0.040756 -959.883899 
Drag coefficient (area added manually): 0.878747 
torque (ref. CG): -0.057059 (roll) -1447.168986 (pitch) -0.248614 (yaw) 
----------------------------------------------------- 
step 86, time 0.012281, maxvel 30.000000, total vol 183256, vol(u>maxvel) 7.58717, cell count 69709
bounding box (containing cells with vel>maxvel): xmin -12.2586 -1.79845 -0.477237, xmax 0.332019 1.79845 4.04782m 
bounding box of vehicle: xmin -12.2 -1.30026 -1.92988e-17, xmax 9.54098e-18 1.30026 3.60025m 
gts area: 163.362 
yplus max: 289.651, yplus min: 7.21588 
position of yplus max: -11.6111 1.3 2.33007 
yplus prom: 60.9913 
forces: 3147.594747 0.039884 -959.725477 
Drag coefficient (area added manually): 0.878450 
torque (ref. CG): -0.055837 (roll) -1447.692766 (pitch) -0.243292 (yaw) 
----------------------------------------------------- 
step 87, time 0.012424, maxvel 30.000000, total vol 183256, vol(u>maxvel) 7.58536, cell count 69694
bounding box (containing cells with vel>maxvel): xmin -12.2586 -1.79807 -0.477237, xmax 0.33227 1.79807 4.03229m 
bounding box of vehicle: xmin -12.2 -1.30026 -1.92988e-17, xmax 9.54098e-18 1.30026 3.60025m 
gts area: 163.362 
yplus max: 289.611, yplus min: 7.20375 
position of yplus max: -11.6111 1.3 2.33007 
yplus prom: 61.0035 
forces: 3146.693315 0.028942 -959.487455 
Drag coefficient (area added manually): 0.878198 
torque (ref. CG): -0.040519 (roll) -1447.502832 (pitch) -0.176548 (yaw) 
----------------------------------------------------- 
step 88, time 0.012566, maxvel 30.000000, total vol 183256, vol(u>maxvel) 7.5848, cell count 69712
bounding box (containing cells with vel>maxvel): xmin -12.2586 -1.79807 -0.477237, xmax 0.332419 1.79807 4.03229m 
bounding box of vehicle: xmin -12.2 -1.30026 -1.92988e-17, xmax 9.54098e-18 1.30026 3.60025m 
gts area: 163.362 
yplus max: 289.577, yplus min: 7.1916 
position of yplus max: -11.6111 1.3 2.33007 
yplus prom: 61.0157 
forces: 3145.860295 0.021157 -959.264114 
Drag coefficient (area added manually): 0.877966 
torque (ref. CG): -0.029619 (roll) -1447.306682 (pitch) -0.129055 (yaw) 
----------------------------------------------------- 
step 89, time 0.012709, maxvel 30.000000, total vol 183256, vol(u>maxvel) 7.58183, cell count 69681
bounding box (containing cells with vel>maxvel): xmin -12.2586 -1.79767 -0.477237, xmax 0.332562 1.79767 4.03229m 
bounding box of vehicle: xmin -12.2 -1.30026 -1.92988e-17, xmax 9.54098e-18 1.30026 3.60025m 
gts area: 163.362 
yplus max: 289.547, yplus min: 7.17943 
position of yplus max: -11.6111 1.3 2.33007 
yplus prom: 61.0278 
forces: 3145.056073 0.014257 -959.079351 
Drag coefficient (area added manually): 0.877741 
torque (ref. CG): -0.019959 (roll) -1447.305541 (pitch) -0.086966 (yaw) 
----------------------------------------------------- 
step 90, time 0.012852, maxvel 30.000000, total vol 183256, vol(u>maxvel) 7.57474, cell count 69669
bounding box (containing cells with vel>maxvel): xmin -12.2586 -1.79507 -0.477237, xmax 0.332697 1.79456 4.03229m 
bounding box of vehicle: xmin -12.2 -1.30026 -1.92988e-17, xmax 9.54098e-18 1.30026 3.60025m 
gts area: 163.362 
yplus max: 289.523, yplus min: 7.16725 
position of yplus max: -11.6111 1.3 2.33007 
yplus prom: 61.0399 
forces: 3144.269801 0.006455 -958.913593 
Drag coefficient (area added manually): 0.877522 
torque (ref. CG): -0.009038 (roll) -1447.395193 (pitch) -0.039378 (yaw) 
----------------------------------------------------- 
step 91, time 0.012995, maxvel 30.000000, total vol 183256, vol(u>maxvel) 7.57078, cell count 69655
bounding box (containing cells with vel>maxvel): xmin -12.2586 -1.79507 -0.477237, xmax 0.332697 1.7951 4.03229m 
bounding box of vehicle: xmin -12.2 -1.30026 -1.92988e-17, xmax 9.54098e-18 1.30026 3.60025m 
gts area: 163.362 
yplus max: 289.502, yplus min: 7.15506 
position of yplus max: -11.6111 1.3 2.33007 
yplus prom: 61.0519 
forces: 3143.505086 -0.004592 -958.714929 
Drag coefficient (area added manually): 0.877308 
torque (ref. CG): 0.006429 (roll) -1447.253946 (pitch) 0.028011 (yaw) 
----------------------------------------------------- 
step 92, time 0.013138, maxvel 30.000000, total vol 183256, vol(u>maxvel) 7.56875, cell count 69635
bounding box (containing cells with vel>maxvel): xmin -12.2586 -1.79507 -0.477237, xmax 0.332827 1.7951 4.03229m 
bounding box of vehicle: xmin -12.2 -1.30026 -1.92988e-17, xmax 9.54098e-18 1.30026 3.60025m 
gts area: 163.362 
yplus max: 289.487, yplus min: 7.14286 
position of yplus max: -11.6111 1.3 2.33007 
yplus prom: 61.0638 
forces: 3142.735894 -0.001111 -958.568828 
Drag coefficient (area added manually): 0.877094 
torque (ref. CG): 0.001556 (roll) -1447.439601 (pitch) 0.006780 (yaw) 
----------------------------------------------------- 
step 93, time 0.013280, maxvel 30.000000, total vol 183256, vol(u>maxvel) 7.56429, cell count 69603
bounding box (containing cells with vel>maxvel): xmin -12.2586 -1.79507 -0.477237, xmax 0.33295 1.7951 4.03229m 
bounding box of vehicle: xmin -12.2 -1.30026 -1.92988e-17, xmax 9.54098e-18 1.30026 3.60025m 
gts area: 163.362 
yplus max: 289.476, yplus min: 7.13065 
position of yplus max: -11.6111 1.3 2.33007 
yplus prom: 61.0755 
forces: 3141.968411 -0.018567 -958.392989 
Drag coefficient (area added manually): 0.876879 
torque (ref. CG): 0.025994 (roll) -1447.441455 (pitch) 0.113259 (yaw) 
----------------------------------------------------- 
step 94, time 0.013423, maxvel 30.000000, total vol 183256, vol(u>maxvel) 7.56045, cell count 69544
bounding box (containing cells with vel>maxvel): xmin -12.2586 -1.79507 -0.477237, xmax 0.33295 1.7951 4.03229m 
bounding box of vehicle: xmin -12.2 -1.30026 -1.92988e-17, xmax 9.54098e-18 1.30026 3.60025m 
gts area: 163.362 
yplus max: 289.469, yplus min: 7.11843 
position of yplus max: -11.6111 1.3 2.33007 
yplus prom: 61.0872 
forces: 3141.187835 -0.017331 -958.255217 
Drag coefficient (area added manually): 0.876662 
torque (ref. CG): 0.024264 (roll) -1447.693855 (pitch) 0.105720 (yaw) 
----------------------------------------------------- 
step 95, time 0.013566, maxvel 30.000000, total vol 183256, vol(u>maxvel) 7.55814, cell count 69544
bounding box (containing cells with vel>maxvel): xmin -12.2586 -1.79507 -0.477237, xmax 0.333069 1.7951 4.03229m 
bounding box of vehicle: xmin -12.2 -1.30026 -1.92988e-17, xmax 9.54098e-18 1.30026 3.60025m 
gts area: 163.362 
yplus max: 289.466, yplus min: 7.10621 
position of yplus max: -11.6111 1.3 2.33007 
yplus prom: 61.0987 
forces: 3140.404720 -0.027777 -958.075184 
Drag coefficient (area added manually): 0.876443 
torque (ref. CG): 0.038888 (roll) -1447.692013 (pitch) 0.169442 (yaw) 
----------------------------------------------------- 
step 96, time 0.013709, maxvel 30.000000, total vol 183256, vol(u>maxvel) 7.55613, cell count 69535
bounding box (containing cells with vel>maxvel): xmin -12.2586 -1.79558 -0.477237, xmax 0.333069 1.79563 4.03229m 
bounding box of vehicle: xmin -12.2 -1.30026 -1.92988e-17, xmax 9.54098e-18 1.30026 3.60025m 
gts area: 163.362 
yplus max: 289.467, yplus min: 6.54459 
position of yplus max: -11.6111 1.3 2.33007 
yplus prom: 61.1101 
forces: 3139.603513 -0.034498 -957.959978 
Drag coefficient (area added manually): 0.876219 
torque (ref. CG): 0.048297 (roll) -1448.110949 (pitch) 0.210436 (yaw) 
----------------------------------------------------- 
step 97, time 0.013852, maxvel 30.000000, total vol 183256, vol(u>maxvel) 7.5581, cell count 69534
bounding box (containing cells with vel>maxvel): xmin -12.2586 -1.79558 -0.477237, xmax 0.333069 1.79563 4.03229m 
bounding box of vehicle: xmin -12.2 -1.30026 -1.92988e-17, xmax 9.54098e-18 1.30026 3.60025m 
gts area: 163.362 
yplus max: 289.472, yplus min: 6.15154 
position of yplus max: -11.6111 1.3 2.33007 
yplus prom: 61.1213 
forces: 3138.803458 -0.040065 -957.836161 
Drag coefficient (area added manually): 0.875996 
torque (ref. CG): 0.056091 (roll) -1448.475740 (pitch) 0.244398 (yaw) 
----------------------------------------------------- 
step 98, time 0.013994, maxvel 30.000000, total vol 183256, vol(u>maxvel) 7.55495, cell count 69506
bounding box (containing cells with vel>maxvel): xmin -12.2586 -1.79558 -0.477237, xmax 0.333185 1.79563 4.03229m 
bounding box of vehicle: xmin -12.2 -1.30026 -1.92988e-17, xmax 9.54098e-18 1.30026 3.60025m 
gts area: 163.362 
yplus max: 289.481, yplus min: 6.10381 
position of yplus max: -11.6111 1.3 2.33007 
yplus prom: 61.1324 
forces: 3138.015294 -0.046799 -957.742690 
Drag coefficient (area added manually): 0.875776 
torque (ref. CG): 0.065519 (roll) -1449.008998 (pitch) 0.285476 (yaw) 
----------------------------------------------------- 
step 99, time 0.014137, maxvel 30.000000, total vol 183256, vol(u>maxvel) 7.54935, cell count 69473
bounding box (containing cells with vel>maxvel): xmin -12.2586 -1.79558 -0.477237, xmax 0.337428 1.79563 4.03229m 
bounding box of vehicle: xmin -12.2 -1.30026 -1.92988e-17, xmax 9.54098e-18 1.30026 3.60025m 
gts area: 163.362 
yplus max: 289.493, yplus min: 6.42077 
position of yplus max: -11.6111 1.3 2.33007 
yplus prom: 61.1434 
forces: 3137.299016 -0.053008 -957.623601 
Drag coefficient (area added manually): 0.875576 
torque (ref. CG): 0.074211 (roll) -1449.285345 (pitch) 0.323349 (yaw) 
----------------------------------------------------- 
step 100, time 0.014280, maxvel 30.000000, total vol 183256, vol(u>maxvel) 7.54767, cell count 69473
bounding box (containing cells with vel>maxvel): xmin -12.2586 -1.79558 -0.477237, xmax 0.337433 1.79563 4.03229m 
bounding box of vehicle: xmin -12.2 -1.30026 -1.92988e-17, xmax 9.54098e-18 1.30026 3.60025m 
gts area: 163.362 
yplus max: 289.509, yplus min: 6.97236 
position of yplus max: -11.6111 1.3 2.33007 
yplus prom: 61.1543 
forces: 3136.588796 -0.051789 -957.510725 
Drag coefficient (area added manually): 0.875378 
torque (ref. CG): 0.072505 (roll) -1449.591107 (pitch) 0.315914 (yaw) 
----------------------------------------------------- 
step 101, time 0.014423, maxvel 30.000000, total vol 183256, vol(u>maxvel) 7.54257, cell count 69437
bounding box (containing cells with vel>maxvel): xmin -12.2586 -1.79558 -0.477237, xmax 0.337433 1.79563 4.03229m 
bounding box of vehicle: xmin -12.2 -1.30026 -1.92988e-17, xmax 9.54098e-18 1.30026 3.60025m 
gts area: 163.362 
yplus max: 289.528, yplus min: 7.0328 
position of yplus max: -11.6111 1.3 2.33007 
yplus prom: 61.1649 
forces: 3135.861737 -0.067047 -957.480917 
Drag coefficient (area added manually): 0.875175 
torque (ref. CG): 0.093866 (roll) -1450.427164 (pitch) 0.408987 (yaw) 
----------------------------------------------------- 
step 102, time 0.014566, maxvel 30.000000, total vol 183256, vol(u>maxvel) 7.53778, cell count 69419
bounding box (containing cells with vel>maxvel): xmin -12.2586 -1.79558 -0.477237, xmax 0.337442 1.79563 4.03229m 
bounding box of vehicle: xmin -12.2 -1.30026 -1.92988e-17, xmax 9.54098e-18 1.30026 3.60025m 
gts area: 163.362 
yplus max: 289.55, yplus min: 7.02056 
position of yplus max: -11.6111 1.3 2.33007 
yplus prom: 61.1755 
forces: 3135.131586 -0.068358 -957.323336 
Drag coefficient (area added manually): 0.874971 
torque (ref. CG): 0.095702 (roll) -1450.488131 (pitch) 0.416985 (yaw) 
----------------------------------------------------- 
step 103, time 0.014708, maxvel 30.000000, total vol 183256, vol(u>maxvel) 7.5288, cell count 69405
bounding box (containing cells with vel>maxvel): xmin -12.2586 -1.79558 -0.477237, xmax 0.337442 1.79563 4.03229m 
bounding box of vehicle: xmin -12.2 -1.30026 -1.92988e-17, xmax 9.54098e-18 1.30026 3.60025m 
gts area: 163.362 
yplus max: 289.575, yplus min: 5.73053 
position of yplus max: -11.6111 1.3 2.33007 
yplus prom: 61.1858 
forces: 3134.380648 -0.074710 -957.271098 
Drag coefficient (area added manually): 0.874762 
torque (ref. CG): 0.104594 (roll) -1451.220788 (pitch) 0.455731 (yaw) 
----------------------------------------------------- 
step 104, time 0.014851, maxvel 30.000000, total vol 183256, vol(u>maxvel) 7.52266, cell count 69395
bounding box (containing cells with vel>maxvel): xmin -12.2586 -1.79609 -0.477237, xmax 0.337442 1.79563 4.03229m 
bounding box of vehicle: xmin -12.2 -1.30026 -1.92988e-17, xmax 9.54098e-18 1.30026 3.60025m 
gts area: 163.362 
yplus max: 289.603, yplus min: 4.38225 
position of yplus max: -11.6111 1.3 2.33007 
yplus prom: 61.1961 
forces: 3133.630628 -0.083047 -957.169349 
Drag coefficient (area added manually): 0.874552 
torque (ref. CG): 0.116266 (roll) -1451.650148 (pitch) 0.506589 (yaw) 
----------------------------------------------------- 
step 105, time 0.014994, maxvel 30.000000, total vol 183256, vol(u>maxvel) 7.52315, cell count 69385
bounding box (containing cells with vel>maxvel): xmin -12.2586 -1.79609 -0.477237, xmax 0.399962 1.79616 4.03229m 
bounding box of vehicle: xmin -12.2 -1.30026 -1.92988e-17, xmax 9.54098e-18 1.30026 3.60025m 
gts area: 163.362 
yplus max: 289.633, yplus min: 4.2825 
position of yplus max: -11.6111 1.3 2.33007 
yplus prom: 61.2064 
forces: 3132.884662 -0.086762 -957.043747 
Drag coefficient (area added manually): 0.874344 
torque (ref. CG): 0.121467 (roll) -1451.928331 (pitch) 0.529249 (yaw) 
----------------------------------------------------- 
step 106, time 0.015137, maxvel 30.000000, total vol 183256, vol(u>maxvel) 7.51749, cell count 69367
bounding box (containing cells with vel>maxvel): xmin -12.2586 -1.79609 -0.477237, xmax 0.400122 1.79616 4.03229m 
bounding box of vehicle: xmin -12.2 -1.30026 -1.92988e-17, xmax 9.54098e-18 1.30026 3.60025m 
gts area: 163.362 
yplus max: 289.666, yplus min: 3.88258 
position of yplus max: -11.6111 1.3 2.33007 
yplus prom: 61.2167 
forces: 3132.137996 -0.088254 -956.917602 
Drag coefficient (area added manually): 0.874136 
torque (ref. CG): 0.123555 (roll) -1452.204176 (pitch) 0.538346 (yaw) 
----------------------------------------------------- 
step 107, time 0.015280, maxvel 30.000000, total vol 183256, vol(u>maxvel) 7.51467, cell count 69371
bounding box (containing cells with vel>maxvel): xmin -12.2586 -1.79609 -0.477237, xmax 0.400274 1.79616 4.03229m 
bounding box of vehicle: xmin -12.2 -1.30026 -1.92988e-17, xmax 9.54098e-18 1.30026 3.60025m 
gts area: 163.362 
yplus max: 289.701, yplus min: 4.09382 
position of yplus max: -11.6111 1.3 2.33007 
yplus prom: 61.227 
forces: 3131.376554 -0.096217 -956.736429 
Drag coefficient (area added manually): 0.873923 
torque (ref. CG): 0.134704 (roll) -1452.165040 (pitch) 0.586926 (yaw) 
----------------------------------------------------- 
step 108, time 0.015422, maxvel 30.000000, total vol 183256, vol(u>maxvel) 7.51812, cell count 69383
bounding box (containing cells with vel>maxvel): xmin -12.2586 -1.79609 -0.477237, xmax 0.400419 1.79616 4.03229m 
bounding box of vehicle: xmin -12.2 -1.30026 -1.92988e-17, xmax 9.54098e-18 1.30026 3.60025m 
gts area: 163.362 
yplus max: 289.738, yplus min: 4.98856 
position of yplus max: -11.6111 1.3 2.33007 
yplus prom: 61.2371 
forces: 3130.591175 -0.104260 -956.619166 
Drag coefficient (area added manually): 0.873704 
torque (ref. CG): 0.145963 (roll) -1452.549267 (pitch) 0.635983 (yaw) 
----------------------------------------------------- 
step 109, time 0.015565, maxvel 30.000000, total vol 183256, vol(u>maxvel) 7.51663, cell count 69393
bounding box (containing cells with vel>maxvel): xmin -12.2586 -1.79609 -0.477237, xmax 0.400419 1.79616 4.03229m 
bounding box of vehicle: xmin -12.2 -1.30026 -1.92988e-17, xmax 9.54098e-18 1.30026 3.60025m 
gts area: 163.362 
yplus max: 289.777, yplus min: 5.93553 
position of yplus max: -11.6111 1.3 2.33007 
yplus prom: 61.247 
forces: 3129.824306 -0.104778 -956.494042 
Drag coefficient (area added manually): 0.873490 
torque (ref. CG): 0.146690 (roll) -1452.859627 (pitch) 0.639147 (yaw) 
----------------------------------------------------- 
step 110, time 0.015708, maxvel 30.000000, total vol 183256, vol(u>maxvel) 7.51556, cell count 69396
bounding box (containing cells with vel>maxvel): xmin -12.2586 -1.79609 -0.477237, xmax 0.400557 1.79616 4.03229m 
bounding box of vehicle: xmin -12.2 -1.30026 -1.92988e-17, xmax 9.54098e-18 1.30026 3.60025m 
gts area: 163.362 
yplus max: 289.818, yplus min: 6.00755 
position of yplus max: -11.6111 1.3 2.33007 
yplus prom: 61.2568 
forces: 3129.032090 -0.109407 -956.361481 
Drag coefficient (area added manually): 0.873269 
torque (ref. CG): 0.153170 (roll) -1453.160106 (pitch) 0.667385 (yaw) 
----------------------------------------------------- 
step 111, time 0.015851, maxvel 30.000000, total vol 183256, vol(u>maxvel) 7.50864, cell count 69384
bounding box (containing cells with vel>maxvel): xmin -12.2586 -1.79609 -0.477237, xmax 0.400557 1.79616 4.03229m 
bounding box of vehicle: xmin -12.2 -1.30026 -1.92988e-17, xmax 9.54098e-18 1.30026 3.60025m 
gts area: 163.362 
yplus max: 289.861, yplus min: 6.25442 
position of yplus max: -11.6111 1.3 2.33007 
yplus prom: 61.2664 
forces: 3128.213342 -0.109340 -956.215601 
Drag coefficient (area added manually): 0.873041 
torque (ref. CG): 0.153077 (roll) -1453.416490 (pitch) 0.666977 (yaw) 
----------------------------------------------------- 
step 112, time 0.015994, maxvel 30.000000, total vol 183256, vol(u>maxvel) 7.51229, cell count 69407
bounding box (containing cells with vel>maxvel): xmin -12.2586 -1.79609 -0.477237, xmax 0.400689 1.79616 4.03229m 
bounding box of vehicle: xmin -12.2 -1.30026 -1.92988e-17, xmax 9.54098e-18 1.30026 3.60025m 
gts area: 163.362 
yplus max: 289.905, yplus min: 6.84664 
position of yplus max: -11.6111 1.3 2.33007 
yplus prom: 61.2758 
forces: 3127.354161 -0.131387 -956.073331 
Drag coefficient (area added manually): 0.872801 
torque (ref. CG): 0.183941 (roll) -1453.751491 (pitch) 0.801458 (yaw) 
----------------------------------------------------- 
step 113, time 0.016136, maxvel 30.000000, total vol 183256, vol(u>maxvel) 7.51178, cell count 69401
bounding box (containing cells with vel>maxvel): xmin -12.2586 -1.79609 -0.477237, xmax 0.400689 1.79616 4.03229m 
bounding box of vehicle: xmin -12.2 -1.30026 -1.92988e-17, xmax 9.54098e-18 1.30026 3.60025m 
gts area: 163.362 
yplus max: 289.95, yplus min: 6.88679 
position of yplus max: -11.6111 1.3 2.33007 
yplus prom: 61.2849 
forces: 3126.391437 -0.103022 -956.102993 
Drag coefficient (area added manually): 0.872532 
torque (ref. CG): 0.144230 (roll) -1455.280246 (pitch) 0.628432 (yaw) 
----------------------------------------------------- 
step 114, time 0.016279, maxvel 30.000000, total vol 183256, vol(u>maxvel) 7.50991, cell count 69392
bounding box (containing cells with vel>maxvel): xmin -12.2586 -1.79609 -0.477237, xmax 0.400816 1.79616 4.03229m 
bounding box of vehicle: xmin -12.2 -1.30026 -1.92988e-17, xmax 9.54098e-18 1.30026 3.60025m 
gts area: 163.362 
yplus max: 289.997, yplus min: 6.87477 
position of yplus max: -11.6111 1.3 2.33007 
yplus prom: 61.2939 
forces: 3125.459863 -0.140670 -955.926673 
Drag coefficient (area added manually): 0.872272 
torque (ref. CG): 0.196939 (roll) -1455.508894 (pitch) 0.858090 (yaw) 
----------------------------------------------------- 
step 115, time 0.016422, maxvel 30.000000, total vol 183256, vol(u>maxvel) 7.50658, cell count 69391
bounding box (containing cells with vel>maxvel): xmin -12.2586 -1.79609 -0.477237, xmax 0.400816 1.79616 4.03229m 
bounding box of vehicle: xmin -12.2 -1.30026 -1.92988e-17, xmax 9.54098e-18 1.30026 3.60025m 
gts area: 163.362 
yplus max: 290.044, yplus min: 6.86279 
position of yplus max: -11.6111 1.3 2.33007 
yplus prom: 61.3026 
forces: 3124.439910 -0.119343 -955.865371 
Drag coefficient (area added manually): 0.871987 
torque (ref. CG): 0.167080 (roll) -1456.562889 (pitch) 0.727989 (yaw) 
----------------------------------------------------- 
step 116, time 0.016565, maxvel 30.000000, total vol 183256, vol(u>maxvel) 7.49971, cell count 69355
bounding box (containing cells with vel>maxvel): xmin -12.2586 -1.79609 -0.477237, xmax 0.400816 1.79616 4.03229m 
bounding box of vehicle: xmin -12.2 -1.30026 -1.92988e-17, xmax 9.54098e-18 1.30026 3.60025m 
gts area: 163.362 
yplus max: 290.093, yplus min: 6.85084 
position of yplus max: -11.6111 1.3 2.33007 
yplus prom: 61.3111 
forces: 3123.453026 -0.129566 -955.644758 
Drag coefficient (area added manually): 0.871712 
torque (ref. CG): 0.181392 (roll) -1456.598790 (pitch) 0.790352 (yaw) 
----------------------------------------------------- 
step 117, time 0.016708, maxvel 30.000000, total vol 183256, vol(u>maxvel) 7.49507, cell count 69329
bounding box (containing cells with vel>maxvel): xmin -12.2586 -1.79609 -0.477237, xmax 0.400938 1.79616 4.03229m 
bounding box of vehicle: xmin -12.2 -1.30026 -1.92988e-17, xmax 9.54098e-18 1.30026 3.60025m 
gts area: 163.362 
yplus max: 290.142, yplus min: 6.83893 
position of yplus max: -11.6111 1.3 2.33007 
yplus prom: 61.3194 
forces: 3122.442662 -0.158963 -955.548844 
Drag coefficient (area added manually): 0.871430 
torque (ref. CG): 0.222548 (roll) -1457.428220 (pitch) 0.969672 (yaw) 
----------------------------------------------------- 
step 118, time 0.016850, maxvel 30.000000, total vol 183256, vol(u>maxvel) 7.49083, cell count 69310
bounding box (containing cells with vel>maxvel): xmin -12.2586 -1.79609 -0.477237, xmax 0.400938 1.79616 4.03229m 
bounding box of vehicle: xmin -12.2 -1.30026 -1.92988e-17, xmax 9.54098e-18 1.30026 3.60025m 
gts area: 163.362 
yplus max: 290.192, yplus min: 6.82707 
position of yplus max: -11.6111 1.3 2.33007 
yplus prom: 61.3274 
forces: 3121.375111 -0.123924 -955.545792 
Drag coefficient (area added manually): 0.871132 
torque (ref. CG): 0.173493 (roll) -1458.904177 (pitch) 0.755934 (yaw) 
----------------------------------------------------- 
step 119, time 0.016993, maxvel 30.000000, total vol 183256, vol(u>maxvel) 7.48891, cell count 69288
bounding box (containing cells with vel>maxvel): xmin -12.2586 -1.79609 -0.477237, xmax 0.400938 1.79616 4.03229m 
bounding box of vehicle: xmin -12.2 -1.30026 -1.92988e-17, xmax 9.54098e-18 1.30026 3.60025m 
gts area: 163.362 
yplus max: 290.242, yplus min: 6.81525 
position of yplus max: -11.6111 1.3 2.33007 
yplus prom: 61.3352 
forces: 3120.378233 -0.149753 -955.333234 
Drag coefficient (area added manually): 0.870854 
torque (ref. CG): 0.209655 (roll) -1459.003203 (pitch) 0.913496 (yaw) 
----------------------------------------------------- 
step 120, time 0.017136, maxvel 30.000000, total vol 183256, vol(u>maxvel) 7.4853, cell count 69260
bounding box (containing cells with vel>maxvel): xmin -12.2586 -1.79659 -0.477237, xmax 0.401058 1.79616 4.03229m 
bounding box of vehicle: xmin -12.2 -1.30026 -1.92988e-17, xmax 9.54098e-18 1.30026 3.60025m 
gts area: 163.362 
yplus max: 290.293, yplus min: 6.80349 
position of yplus max: -11.6111 1.3 2.33007 
yplus prom: 61.3428 
forces: 3119.330681 -0.142614 -955.286544 
Drag coefficient (area added manually): 0.870562 
torque (ref. CG): 0.199659 (roll) -1460.184966 (pitch) 0.869943 (yaw) 
----------------------------------------------------- 
step 121, time 0.017279, maxvel 30.000000, total vol 183256, vol(u>maxvel) 7.48899, cell count 69255
bounding box (containing cells with vel>maxvel): xmin -12.2586 -1.79659 -0.477237, xmax 0.401058 1.79668 4.03229m 
[...]
----------------------------------------------------- 
step 2235, time 0.319158, maxvel 30.000000, total vol 183256, vol(u>maxvel) 751.533, cell count 28699
bounding box (containing cells with vel>maxvel): xmin -12.2584 -17.9281 -0.477237, xmax 116.945 17.9281 31.8415m 
bounding box of vehicle: xmin -12.2 -1.30026 -1.92988e-17, xmax 9.54098e-18 1.30026 3.60025m 
gts area: 163.362 
yplus max: 287.383, yplus min: 8.54616 
position of yplus max: -11.6111 1.3 2.33007 
yplus prom: 56.8512 
forces: 1693.322036 -0.771031 -589.237710 
Drag coefficient (area added manually): 0.472582 
torque (ref. CG): 1.079443 (roll) -1223.699180 (pitch) 4.703288 (yaw) 
----------------------------------------------------- 
step 2236, time 0.319301, maxvel 30.000000, total vol 183256, vol(u>maxvel) 753.776, cell count 28696
bounding box (containing cells with vel>maxvel): xmin -12.2584 -17.9281 -0.477237, xmax 116.945 17.9281 31.8415m 
bounding box of vehicle: xmin -12.2 -1.30026 -1.92988e-17, xmax 9.54098e-18 1.30026 3.60025m 
gts area: 163.362 
yplus max: 287.383, yplus min: 8.54563 
position of yplus max: -11.6111 1.3 2.33007 
yplus prom: 56.8492 
forces: 1693.246927 -0.776322 -589.217908 
Drag coefficient (area added manually): 0.472562 
torque (ref. CG): 1.086850 (roll) -1223.683539 (pitch) 4.735561 (yaw) 
----------------------------------------------------- 
step 2237, time 0.319444, maxvel 30.000000, total vol 183256, vol(u>maxvel) 754.324, cell count 28700
bounding box (containing cells with vel>maxvel): xmin -12.2584 -17.9281 -0.477237, xmax 116.945 17.9281 31.8415m 
bounding box of vehicle: xmin -12.2 -1.30026 -1.92988e-17, xmax 9.54098e-18 1.30026 3.60025m 
gts area: 163.362 
yplus max: 287.383, yplus min: 8.54511 
position of yplus max: -11.6111 1.3 2.33007 
yplus prom: 56.8472 
forces: 1693.158654 -0.778248 -589.004487 
Drag coefficient (area added manually): 0.472537 
torque (ref. CG): 1.089547 (roll) -1222.505257 (pitch) 4.747311 (yaw) 
----------------------------------------------------- 
step 2238, time 0.319586, maxvel 30.000000, total vol 183256, vol(u>maxvel) 754.068, cell count 28695
bounding box (containing cells with vel>maxvel): xmin -12.2584 -17.9281 -0.477237, xmax 116.945 17.9281 31.8415m 
bounding box of vehicle: xmin -12.2 -1.30026 -1.92988e-17, xmax 9.54098e-18 1.30026 3.60025m 
gts area: 163.362 
yplus max: 287.382, yplus min: 8.54458 
position of yplus max: -11.6111 1.3 2.33007 
yplus prom: 56.8452 
forces: 1693.063214 -0.773867 -588.958270 
Drag coefficient (area added manually): 0.472510 
torque (ref. CG): 1.083414 (roll) -1222.356949 (pitch) 4.720590 (yaw) 
----------------------------------------------------- 
step 2239, time 0.319729, maxvel 30.000000, total vol 183256, vol(u>maxvel) 754.214, cell count 28703
bounding box (containing cells with vel>maxvel): xmin -12.2584 -17.9281 -0.477237, xmax 116.945 17.9281 31.8415m 
bounding box of vehicle: xmin -12.2 -1.30026 -1.92988e-17, xmax 9.54098e-18 1.30026 3.60025m 
gts area: 163.362 
yplus max: 287.382, yplus min: 8.54405 
position of yplus max: -11.6111 1.3 2.33007 
yplus prom: 56.8432 
forces: 1692.994822 -0.765232 -588.686105 
Drag coefficient (area added manually): 0.472491 
torque (ref. CG): 1.071325 (roll) -1220.792490 (pitch) 4.667915 (yaw) 
----------------------------------------------------- 
step 2240, time 0.319872, maxvel 30.000000, total vol 183256, vol(u>maxvel) 754.329, cell count 28718
bounding box (containing cells with vel>maxvel): xmin -12.2584 -17.9281 -0.477237, xmax 116.945 17.9281 31.8415m 
bounding box of vehicle: xmin -12.2 -1.30026 -1.92988e-17, xmax 9.54098e-18 1.30026 3.60025m 
gts area: 163.362 
yplus max: 287.382, yplus min: 8.54352 
position of yplus max: -11.6111 1.3 2.33007 
yplus prom: 56.8412 
forces: 1692.917674 -0.774899 -588.592070 
Drag coefficient (area added manually): 0.472470 
torque (ref. CG): 1.084859 (roll) -1220.326882 (pitch) 4.726886 (yaw) 
----------------------------------------------------- 
step 2241, time 0.320015, maxvel 30.000000, total vol 183256, vol(u>maxvel) 756.148, cell count 28722
bounding box (containing cells with vel>maxvel): xmin -12.2584 -17.9281 -0.477237, xmax 116.945 17.9281 31.8415m 
bounding box of vehicle: xmin -12.2 -1.30026 -1.92988e-17, xmax 9.54098e-18 1.30026 3.60025m 
gts area: 163.362 
yplus max: 287.382, yplus min: 8.543 
position of yplus max: -11.6111 1.3 2.33007 
yplus prom: 56.8392 
forces: 1692.809154 -0.766301 -588.652809 
Drag coefficient (area added manually): 0.472439 
torque (ref. CG): 1.072822 (roll) -1220.849317 (pitch) 4.674437 (yaw) 
----------------------------------------------------- 
step 2242, time 0.320158, maxvel 30.000000, total vol 183256, vol(u>maxvel) 760.001, cell count 28733
bounding box (containing cells with vel>maxvel): xmin -12.2584 -17.9281 -0.477237, xmax 116.945 17.9281 31.8415m 
bounding box of vehicle: xmin -12.2 -1.30026 -1.92988e-17, xmax 9.54098e-18 1.30026 3.60025m 
gts area: 163.362 
yplus max: 287.381, yplus min: 8.54247 
position of yplus max: -11.6111 1.3 2.33007 
yplus prom: 56.8372 
forces: 1692.738493 -0.746752 -588.446366 
Drag coefficient (area added manually): 0.472420 
torque (ref. CG): 1.045452 (roll) -1219.688942 (pitch) 4.555184 (yaw) 
----------------------------------------------------- 
step 2243, time 0.320300, maxvel 30.000000, total vol 183256, vol(u>maxvel) 760.42, cell count 28751
bounding box (containing cells with vel>maxvel): xmin -12.2584 -17.9281 -0.477237, xmax 116.945 17.9281 31.6958m 
bounding box of vehicle: xmin -12.2 -1.30026 -1.92988e-17, xmax 9.54098e-18 1.30026 3.60025m 
gts area: 163.362 
yplus max: 287.381, yplus min: 8.54194 
position of yplus max: -11.6111 1.3 2.33007 
yplus prom: 56.8352 
forces: 1692.654525 -0.786365 -588.332483 
Drag coefficient (area added manually): 0.472396 
torque (ref. CG): 1.100911 (roll) -1219.111810 (pitch) 4.796826 (yaw) 
----------------------------------------------------- 
step 2244, time 0.320443, maxvel 30.000000, total vol 183256, vol(u>maxvel) 760.949, cell count 28758
bounding box (containing cells with vel>maxvel): xmin -12.2584 -17.9281 -0.477237, xmax 116.945 17.9281 31.6958m 
bounding box of vehicle: xmin -12.2 -1.30026 -1.92988e-17, xmax 9.54098e-18 1.30026 3.60025m 
gts area: 163.362 
yplus max: 287.381, yplus min: 8.54141 
position of yplus max: -11.6111 1.3 2.33007 
yplus prom: 56.8332 
forces: 1692.577300 -0.768058 -588.261940 
Drag coefficient (area added manually): 0.472375 
torque (ref. CG): 1.075281 (roll) -1218.789616 (pitch) 4.685153 (yaw) 
----------------------------------------------------- 
step 2245, time 0.320586, maxvel 30.000000, total vol 183256, vol(u>maxvel) 763.036, cell count 28762
bounding box (containing cells with vel>maxvel): xmin -12.2584 -17.9281 -0.477237, xmax 116.945 17.9281 31.6958m 
bounding box of vehicle: xmin -12.2 -1.30026 -1.92988e-17, xmax 9.54098e-18 1.30026 3.60025m 
gts area: 163.362 
yplus max: 287.381, yplus min: 8.54088 
position of yplus max: -11.6111 1.3 2.33007 
yplus prom: 56.8312 
forces: 1692.477766 -0.761950 -588.166154 
Drag coefficient (area added manually): 0.472347 
torque (ref. CG): 1.066730 (roll) -1218.344668 (pitch) 4.647893 (yaw) 
----------------------------------------------------- 
step 2246, time 0.320729, maxvel 30.000000, total vol 183256, vol(u>maxvel) 764.95, cell count 28762
bounding box (containing cells with vel>maxvel): xmin -12.2584 -17.9281 -0.477237, xmax 116.945 17.9281 31.6958m 
bounding box of vehicle: xmin -12.2 -1.30026 -1.92988e-17, xmax 9.54098e-18 1.30026 3.60025m 
gts area: 163.362 
yplus max: 287.38, yplus min: 8.54035 
position of yplus max: -11.6111 1.3 2.33007 
yplus prom: 56.8292 
forces: 1692.400757 -0.769214 -588.176284 
Drag coefficient (area added manually): 0.472325 
torque (ref. CG): 1.076900 (roll) -1218.514273 (pitch) 4.692205 (yaw) 
----------------------------------------------------- 
step 2247, time 0.320872, maxvel 30.000000, total vol 183256, vol(u>maxvel) 767.403, cell count 28779
bounding box (containing cells with vel>maxvel): xmin -12.2584 -17.9281 -0.477237, xmax 116.945 17.9281 31.8415m 
bounding box of vehicle: xmin -12.2 -1.30026 -1.92988e-17, xmax 9.54098e-18 1.30026 3.60025m 
gts area: 163.362 
yplus max: 287.38, yplus min: 8.53982 
position of yplus max: -11.6111 1.3 2.33007 
yplus prom: 56.8272 
forces: 1692.318083 -0.769216 -587.919976 
Drag coefficient (area added manually): 0.472302 
torque (ref. CG): 1.076902 (roll) -1217.066537 (pitch) 4.692217 (yaw) 
----------------------------------------------------- 
step 2248, time 0.321014, maxvel 30.000000, total vol 183256, vol(u>maxvel) 768.109, cell count 28781
bounding box (containing cells with vel>maxvel): xmin -12.2584 -17.9281 -0.477237, xmax 116.945 17.9281 31.8415m 
bounding box of vehicle: xmin -12.2 -1.30026 -1.92988e-17, xmax 9.54098e-18 1.30026 3.60025m 
gts area: 163.362 
yplus max: 287.38, yplus min: 8.53929 
position of yplus max: -11.6111 1.3 2.33007 
yplus prom: 56.8252 
forces: 1692.238939 -0.755977 -587.815507 
Drag coefficient (area added manually): 0.472280 
torque (ref. CG): 1.058368 (roll) -1216.540080 (pitch) 4.611459 (yaw) 
----------------------------------------------------- 
step 2249, time 0.321157, maxvel 30.000000, total vol 183256, vol(u>maxvel) 767.958, cell count 28787
bounding box (containing cells with vel>maxvel): xmin -12.2584 -17.9281 -0.477237, xmax 116.945 17.9281 31.8415m 
bounding box of vehicle: xmin -12.2 -1.30026 -1.92988e-17, xmax 9.54098e-18 1.30026 3.60025m 
gts area: 163.362 
yplus max: 287.38, yplus min: 8.53876 
position of yplus max: -11.6111 1.3 2.33007 
yplus prom: 56.8232 
forces: 1692.146780 -0.756210 -587.694528 
Drag coefficient (area added manually): 0.472254 
torque (ref. CG): 1.058695 (roll) -1215.931128 (pitch) 4.612884 (yaw) 
----------------------------------------------------- 
step 2250, time 0.321300, maxvel 30.000000, total vol 183256, vol(u>maxvel) 768.035, cell count 28794
bounding box (containing cells with vel>maxvel): xmin -12.2584 -17.9281 -0.477237, xmax 116.945 17.9281 31.8415m 
bounding box of vehicle: xmin -12.2 -1.30026 -1.92988e-17, xmax 9.54098e-18 1.30026 3.60025m 
gts area: 163.362 
yplus max: 287.379, yplus min: 8.53823 
position of yplus max: -11.6111 1.3 2.33007 
yplus prom: 56.8212 
forces: 1692.065979 -0.764085 -587.618643 
Drag coefficient (area added manually): 0.472232 
torque (ref. CG): 1.069719 (roll) -1215.581351 (pitch) 4.660918 (yaw) 
----------------------------------------------------- 
step 2251, time 0.321443, maxvel 30.000000, total vol 183256, vol(u>maxvel) 768.386, cell count 28812
bounding box (containing cells with vel>maxvel): xmin -12.2584 -17.9281 -0.477237, xmax 116.945 17.9281 31.8415m 
bounding box of vehicle: xmin -12.2 -1.30026 -1.92988e-17, xmax 9.54098e-18 1.30026 3.60025m 
gts area: 163.362 
yplus max: 287.379, yplus min: 8.5377 
position of yplus max: -11.6111 1.3 2.33007 
yplus prom: 56.8192 
forces: 1691.979720 -0.771796 -587.398560 
Drag coefficient (area added manually): 0.472208 
torque (ref. CG): 1.080514 (roll) -1214.359610 (pitch) 4.707953 (yaw) 
----------------------------------------------------- 
step 2252, time 0.321586, maxvel 30.000000, total vol 183256, vol(u>maxvel) 767.729, cell count 28810
bounding box (containing cells with vel>maxvel): xmin -12.2584 -17.9281 -0.477237, xmax 116.945 17.9281 31.8415m 
bounding box of vehicle: xmin -12.2 -1.30026 -1.92988e-17, xmax 9.54098e-18 1.30026 3.60025m 
gts area: 163.362 
yplus max: 287.379, yplus min: 8.53717 
position of yplus max: -11.6111 1.3 2.33007 
yplus prom: 56.8172 
forces: 1691.899841 -0.763499 -587.418069 
Drag coefficient (area added manually): 0.472186 
torque (ref. CG): 1.068899 (roll) -1214.590441 (pitch) 4.657344 (yaw) 
----------------------------------------------------- 
step 2253, time 0.321728, maxvel 30.000000, total vol 183256, vol(u>maxvel) 769.759, cell count 28806
bounding box (containing cells with vel>maxvel): xmin -12.2584 -17.9281 -0.477237, xmax 116.945 17.9281 31.8415m 
bounding box of vehicle: xmin -12.2 -1.30026 -1.92988e-17, xmax 9.54098e-18 1.30026 3.60025m 
gts area: 163.362 
yplus max: 287.379, yplus min: 8.53664 
position of yplus max: -11.6111 1.3 2.33007 
yplus prom: 56.8152 
forces: 1691.815425 -0.767284 -587.293334 
Drag coefficient (area added manually): 0.472162 
torque (ref. CG): 1.074197 (roll) -1213.947740 (pitch) 4.680430 (yaw) 
----------------------------------------------------- 
step 2254, time 0.321871, maxvel 30.000000, total vol 183256, vol(u>maxvel) 772.397, cell count 28819
bounding box (containing cells with vel>maxvel): xmin -12.2584 -17.9281 -0.477237, xmax 116.945 17.9281 31.8415m 
bounding box of vehicle: xmin -12.2 -1.30026 -1.92988e-17, xmax 9.54098e-18 1.30026 3.60025m 
gts area: 163.362 
yplus max: 287.378, yplus min: 8.53611 
position of yplus max: -11.6111 1.3 2.33007 
yplus prom: 56.8132 
forces: 1691.729988 -0.760411 -587.177581 
Drag coefficient (area added manually): 0.472138 
torque (ref. CG): 1.064575 (roll) -1213.361261 (pitch) 4.638505 (yaw) 
----------------------------------------------------- 
step 2255, time 0.322014, maxvel 30.000000, total vol 183256, vol(u>maxvel) 774.858, cell count 28832
bounding box (containing cells with vel>maxvel): xmin -12.2584 -17.9281 -0.477237, xmax 116.945 17.9281 31.8415m 
bounding box of vehicle: xmin -12.2 -1.30026 -1.92988e-17, xmax 9.54098e-18 1.30026 3.60025m 
gts area: 163.362 
yplus max: 287.378, yplus min: 8.53558 
position of yplus max: -11.6111 1.3 2.33007 
yplus prom: 56.8112 
forces: 1691.657314 -0.763901 -587.016194 
Drag coefficient (area added manually): 0.472118 
torque (ref. CG): 1.069462 (roll) -1212.478542 (pitch) 4.659799 (yaw) 
----------------------------------------------------- 
step 2256, time 0.322157, maxvel 30.000000, total vol 183256, vol(u>maxvel) 774.33, cell count 28840
bounding box (containing cells with vel>maxvel): xmin -12.2584 -17.9281 -0.477237, xmax 116.945 17.9281 31.8415m 
bounding box of vehicle: xmin -12.2 -1.30026 -1.92988e-17, xmax 9.54098e-18 1.30026 3.60025m 
gts area: 163.362 
yplus max: 287.378, yplus min: 8.53505 
position of yplus max: -11.6111 1.3 2.33007 
yplus prom: 56.8092 
forces: 1691.557497 -0.765030 -587.097666 
Drag coefficient (area added manually): 0.472090 
torque (ref. CG): 1.071043 (roll) -1213.115269 (pitch) 4.666685 (yaw) 
----------------------------------------------------- 
step 2257, time 0.322300, maxvel 30.000000, total vol 183256, vol(u>maxvel) 776.637, cell count 28852
bounding box (containing cells with vel>maxvel): xmin -12.2584 -17.9281 -0.477237, xmax 116.945 17.9281 31.8415m 
bounding box of vehicle: xmin -12.2 -1.30026 -1.92988e-17, xmax 9.54098e-18 1.30026 3.60025m 
gts area: 163.362 
yplus max: 287.378, yplus min: 8.53451 
position of yplus max: -11.6111 1.3 2.33007 
yplus prom: 56.8072 
forces: 1691.476120 -0.772190 -586.909386 
Drag coefficient (area added manually): 0.472067 
torque (ref. CG): 1.081066 (roll) -1212.080684 (pitch) 4.710360 (yaw) 
----------------------------------------------------- 
step 2258, time 0.322442, maxvel 30.000000, total vol 183256, vol(u>maxvel) 778.347, cell count 28866
bounding box (containing cells with vel>maxvel): xmin -12.2584 -17.9281 -0.477237, xmax 116.945 17.9281 31.8415m 
bounding box of vehicle: xmin -12.2 -1.30026 -1.92988e-17, xmax 9.54098e-18 1.30026 3.60025m 
gts area: 163.362 
yplus max: 287.377, yplus min: 8.53398 
position of yplus max: -11.6111 1.3 2.33007 
yplus prom: 56.8052 
forces: 1691.399620 -0.756748 -586.744768 
Drag coefficient (area added manually): 0.472046 
torque (ref. CG): 1.059448 (roll) -1211.183615 (pitch) 4.616164 (yaw) 
----------------------------------------------------- 
step 2259, time 0.322585, maxvel 30.000000, total vol 183256, vol(u>maxvel) 778.713, cell count 28876
bounding box (containing cells with vel>maxvel): xmin -12.2584 -17.9281 -0.477237, xmax 116.945 17.9281 31.8415m 
bounding box of vehicle: xmin -12.2 -1.30026 -1.92988e-17, xmax 9.54098e-18 1.30026 3.60025m 
gts area: 163.362 
yplus max: 287.377, yplus min: 8.53345 
position of yplus max: -11.6111 1.3 2.33007 
yplus prom: 56.8033 
forces: 1691.317577 -0.771788 -586.632095 
Drag coefficient (area added manually): 0.472023 
torque (ref. CG): 1.080503 (roll) -1210.611170 (pitch) 4.707906 (yaw) 
----------------------------------------------------- 
step 2260, time 0.322728, maxvel 30.000000, total vol 183256, vol(u>maxvel) 779.162, cell count 28885
bounding box (containing cells with vel>maxvel): xmin -12.2584 -17.9281 -0.477237, xmax 116.945 17.9281 31.8415m 
bounding box of vehicle: xmin -12.2 -1.30026 -1.92988e-17, xmax 9.54098e-18 1.30026 3.60025m 
gts area: 163.362 
yplus max: 287.377, yplus min: 8.53292 
position of yplus max: -11.6111 1.3 2.33007 
yplus prom: 56.8013 
forces: 1691.229427 -0.752697 -586.405038 
Drag coefficient (area added manually): 0.471998 
torque (ref. CG): 1.053776 (roll) -1209.349535 (pitch) 4.591453 (yaw) 
----------------------------------------------------- 
step 2261, time 0.322871, maxvel 30.000000, total vol 183256, vol(u>maxvel) 778.839, cell count 28887
bounding box (containing cells with vel>maxvel): xmin -12.2584 -17.9281 -0.477237, xmax 116.945 17.9307 31.8415m 
bounding box of vehicle: xmin -12.2 -1.30026 -1.92988e-17, xmax 9.54098e-18 1.30026 3.60025m 
gts area: 163.362 
yplus max: 287.377, yplus min: 8.53238 
position of yplus max: -11.6111 1.3 2.33007 
yplus prom: 56.7993 
forces: 1691.141438 -0.758861 -586.496909 
Drag coefficient (area added manually): 0.471974 
torque (ref. CG): 1.062406 (roll) -1210.033134 (pitch) 4.629054 (yaw) 
----------------------------------------------------- 
step 2262, time 0.323014, maxvel 30.000000, total vol 183256, vol(u>maxvel) 777.018, cell count 28878
bounding box (containing cells with vel>maxvel): xmin -12.2584 -17.9281 -0.477237, xmax 116.945 17.9307 31.8415m 
bounding box of vehicle: xmin -12.2 -1.30026 -1.92988e-17, xmax 9.54098e-18 1.30026 3.60025m 
gts area: 163.362 
yplus max: 287.376, yplus min: 8.53185 
position of yplus max: -11.6111 1.3 2.33007 
yplus prom: 56.7973 
forces: 1691.065954 -0.764268 -586.317965 
Drag coefficient (area added manually): 0.471953 
torque (ref. CG): 1.069976 (roll) -1209.047249 (pitch) 4.662037 (yaw) 
----------------------------------------------------- 
step 2263, time 0.323156, maxvel 30.000000, total vol 183256, vol(u>maxvel) 780.929, cell count 28897
bounding box (containing cells with vel>maxvel): xmin -12.2584 -17.9281 -0.477237, xmax 116.945 17.9307 31.8415m 
bounding box of vehicle: xmin -12.2 -1.30026 -1.92988e-17, xmax 9.54098e-18 1.30026 3.60025m 
gts area: 163.362 
yplus max: 287.376, yplus min: 8.53132 
position of yplus max: -11.6111 1.3 2.33007 
yplus prom: 56.7953 
forces: 1690.982810 -0.772871 -586.238818 
Drag coefficient (area added manually): 0.471930 
torque (ref. CG): 1.082019 (roll) -1208.680855 (pitch) 4.714511 (yaw) 
----------------------------------------------------- 
step 2264, time 0.323299, maxvel 30.000000, total vol 183256, vol(u>maxvel) 784.933, cell count 28904
bounding box (containing cells with vel>maxvel): xmin -12.2584 -17.9307 -0.477237, xmax 116.945 17.9307 31.8415m 
bounding box of vehicle: xmin -12.2 -1.30026 -1.92988e-17, xmax 9.54098e-18 1.30026 3.60025m 
gts area: 163.362 
yplus max: 287.376, yplus min: 8.53078 
position of yplus max: -11.6111 1.3 2.33007 
yplus prom: 56.7933 
forces: 1690.898453 -0.746416 -586.094803 
Drag coefficient (area added manually): 0.471906 
torque (ref. CG): 1.044983 (roll) -1207.920467 (pitch) 4.553139 (yaw) 
----------------------------------------------------- 
srun: Job step aborted: Waiting up to 32 seconds for job step to finish.
srun: got SIGCONT
slurmstepd: error: *** JOB 138476 ON compute-0-10 CANCELLED AT 2022-08-09T14:37:44 ***
srun: forcing job termination
make: *** [run] Terminated
slurmstepd: error: *** STEP 138476.0 ON compute-0-10 CANCELLED AT 2022-08-09T14:37:44 ***
