Start run at Sat Aug 13 17:03:33 ART 2022
PYTHON_CS_XFLAGS=' -O0 -g3 -ggdb3 -I/usr/include/jsoncpp ' /share/storage/pub/mstorti/saturne-vof/bin/code_saturne  run --param setup.xml

The following have been reloaded with a version change:
  1) llvm/6.0.0 => llvm/3.4.2


The following have been reloaded with a version change:
  1) llvm/3.4.2 => llvm/6.0.0


                      Code_Saturne
                      ************

 Version:   6.1-alpha
 Path:      /share/storage/pub/mstorti/saturne-vof

 Result directory:
   /share/storage/finzeo/GTS_Tunay_2/RESU/20220813-1703


 ****************************************
  Compiling user subroutines and linking
 ****************************************


 ****************************
  Preparing calculation data
 ****************************

 Parallel Code_Saturne on 100 processes.


 ***************************
  Preprocessing calculation
 ***************************


 **********************
  Starting calculation
 **********************

Warning: Process to core binding is enabled and OMP_NUM_THREADS is set to non-zero (1) value
If your program has OpenMP sections, this can cause over-subscription of cores and consequently poor performance
To avoid this, please re-run your application after setting MV2_ENABLE_AFFINITY=0
Use MV2_USE_THREAD_WARNING=0 to suppress this message
step 1, time 0.000750, maxvel 30.000000, total vol 183256, vol(u>maxvel) 6.93129, cell count 1729480
bounding box (containing cells with vel>maxvel): xmin -12.2954 -1.84792 -0.46, xmax 0.220928 1.84792 4.08217m 
bounding box of vehicle: xmin -12.2 -1.30007 -6.07152e-18, xmax 2.41231e-18 1.30013 3.6m 
gts area: 163.391 
yplus max: 141.033, yplus min: 0 
position of yplus max: -8.00101 1.27283 3.4931 
yplus prom: 25.5754 
forces: 39133476.132063 -28.897472 -5783513.216417 
Drag coefficient: 10920.771511 
torque (ref. CG): 40.456461 (roll) 19507435.964753 (pitch) 176.274581 (yaw) 
----------------------------------------------------- 
step 2, time 0.001500, maxvel 30.000000, total vol 183256, vol(u>maxvel) 7.1746, cell count 1794390
bounding box (containing cells with vel>maxvel): xmin -12.2955 -1.87881 -0.460598, xmax 0.252008 1.87881 4.11321m 
bounding box of vehicle: xmin -12.2 -1.30007 -6.07152e-18, xmax 2.41231e-18 1.30013 3.6m 
gts area: 163.391 
yplus max: 148.786, yplus min: 1.60491 
position of yplus max: -12.0258 -1.29323 0.0340221 
yplus prom: 23.4989 
forces: 768016.926215 2.245307 -93744.378440 
Drag coefficient: 214.326408 
torque (ref. CG): -3.143430 (roll) 503382.988214 (pitch) -13.696373 (yaw) 
----------------------------------------------------- 
step 3, time 0.002250, maxvel 30.000000, total vol 183256, vol(u>maxvel) 7.19463, cell count 1820434
bounding box (containing cells with vel>maxvel): xmin -12.295 -1.87869 -0.489147, xmax 0.267421 1.87869 4.11321m 
bounding box of vehicle: xmin -12.2 -1.30007 -6.07152e-18, xmax 2.41231e-18 1.30013 3.6m 
gts area: 163.391 
yplus max: 158.561, yplus min: 1.62032 
position of yplus max: -12.0258 -1.29323 0.0340221 
yplus prom: 23.2274 
forces: 14291.509782 -1.046922 -2414.487915 
Drag coefficient: 3.988256 
torque (ref. CG): 1.465691 (roll) 5279.737416 (pitch) 6.386224 (yaw) 
----------------------------------------------------- 
step 4, time 0.003000, maxvel 30.000000, total vol 183256, vol(u>maxvel) 7.19662, cell count 1837268
bounding box (containing cells with vel>maxvel): xmin -12.2944 -1.87852 -0.489147, xmax 0.267605 1.87852 4.08217m 
bounding box of vehicle: xmin -12.2 -1.30007 -6.07152e-18, xmax 2.41231e-18 1.30013 3.6m 
gts area: 163.391 
yplus max: 161.356, yplus min: 1.5873 
position of yplus max: -12.0258 -1.29323 0.0340221 
yplus prom: 23.1883 
forces: 1984.025247 0.469936 -813.612389 
Drag coefficient: 0.553671 
torque (ref. CG): -0.657911 (roll) -2185.400227 (pitch) -2.866610 (yaw) 
----------------------------------------------------- 
step 5, time 0.003750, maxvel 30.000000, total vol 183256, vol(u>maxvel) 7.19091, cell count 1849410
bounding box (containing cells with vel>maxvel): xmin -12.2943 -1.87819 -0.489147, xmax 0.282991 1.87819 4.08217m 
bounding box of vehicle: xmin -12.2 -1.30007 -6.07152e-18, xmax 2.41231e-18 1.30013 3.6m 
gts area: 163.391 
yplus max: 162.713, yplus min: 1.56499 
position of yplus max: -12.0258 -1.29323 0.0340221 
yplus prom: 23.0999 
forces: 1857.210934 0.101922 -838.052368 
Drag coefficient: 0.518282 
torque (ref. CG): -0.142691 (roll) -2512.024137 (pitch) -0.621726 (yaw) 
----------------------------------------------------- 
step 6, time 0.004500, maxvel 30.000000, total vol 183256, vol(u>maxvel) 7.19014, cell count 1861128
bounding box (containing cells with vel>maxvel): xmin -12.2938 -1.84792 -0.489147, xmax 0.283158 1.84792 4.08217m 
bounding box of vehicle: xmin -12.2 -1.30007 -6.07152e-18, xmax 2.41231e-18 1.30013 3.6m 
gts area: 163.391 
yplus max: 163.577, yplus min: 1.53969 
position of yplus max: -12.0258 -1.29323 0.0340221 
yplus prom: 23.0157 
forces: 1974.552196 0.027530 -846.073017 
Drag coefficient: 0.551028 
torque (ref. CG): -0.038542 (roll) -2396.672329 (pitch) -0.167931 (yaw) 
----------------------------------------------------- 
step 7, time 0.005250, maxvel 30.000000, total vol 183256, vol(u>maxvel) 7.19703, cell count 1874656
bounding box (containing cells with vel>maxvel): xmin -12.2934 -1.84785 -0.489147, xmax 0.298526 1.84785 4.08217m 
bounding box of vehicle: xmin -12.2 -1.30007 -6.07152e-18, xmax 2.41231e-18 1.30013 3.6m 
gts area: 163.391 
yplus max: 164.154, yplus min: 1.50987 
position of yplus max: -12.0258 -1.29323 0.0340221 
yplus prom: 22.9645 
forces: 2079.472189 -0.021268 -845.120507 
Drag coefficient: 0.580307 
torque (ref. CG): 0.029776 (roll) -2243.974030 (pitch) 0.129738 (yaw) 
----------------------------------------------------- 
step 8, time 0.006000, maxvel 30.000000, total vol 183256, vol(u>maxvel) 7.1972, cell count 1884300
bounding box (containing cells with vel>maxvel): xmin -12.2804 -1.84778 -0.489147, xmax 0.298686 1.84778 4.08217m 
bounding box of vehicle: xmin -12.2 -1.30007 -6.07152e-18, xmax 2.41231e-18 1.30013 3.6m 
gts area: 163.391 
yplus max: 164.54, yplus min: 0.815919 
position of yplus max: -12.0258 -1.29323 0.0340221 
yplus prom: 22.9295 
forces: 2170.522584 0.018549 -843.560029 
Drag coefficient: 0.605716 
torque (ref. CG): -0.025968 (roll) -2106.984559 (pitch) -0.113147 (yaw) 
----------------------------------------------------- 
step 9, time 0.006750, maxvel 30.000000, total vol 183256, vol(u>maxvel) 7.20101, cell count 1893252
bounding box (containing cells with vel>maxvel): xmin -12.2804 -1.84771 -0.489147, xmax 0.314014 1.84771 4.08217m 
bounding box of vehicle: xmin -12.2 -1.30007 -6.07152e-18, xmax 2.41231e-18 1.30013 3.6m 
gts area: 163.391 
yplus max: 164.803, yplus min: 1.20228 
position of yplus max: -12.0258 -1.29323 0.0340221 
yplus prom: 22.907 
forces: 2251.063628 0.004230 -841.776264 
Drag coefficient: 0.628192 
torque (ref. CG): -0.005922 (roll) -1983.346132 (pitch) -0.025802 (yaw) 
----------------------------------------------------- 
step 10, time 0.007500, maxvel 30.000000, total vol 183256, vol(u>maxvel) 7.20892, cell count 1902309
bounding box (containing cells with vel>maxvel): xmin -12.2804 -1.84763 -0.489147, xmax 0.314191 1.84763 4.08217m 
bounding box of vehicle: xmin -12.2 -1.30007 -6.07152e-18, xmax 2.41231e-18 1.30013 3.6m 
gts area: 163.391 
yplus max: 164.989, yplus min: 1.43281 
position of yplus max: -12.0258 -1.29323 0.0340221 
yplus prom: 22.8928 
forces: 2323.692161 0.007559 -840.342079 
Drag coefficient: 0.648460 
torque (ref. CG): -0.010583 (roll) -1872.917658 (pitch) -0.046113 (yaw) 
----------------------------------------------------- 
step 11, time 0.008250, maxvel 30.000000, total vol 183256, vol(u>maxvel) 7.21361, cell count 1909718
bounding box (containing cells with vel>maxvel): xmin -12.2804 -1.84755 -0.489155, xmax 0.329397 1.84755 4.05127m 
bounding box of vehicle: xmin -12.2 -1.30007 -6.07152e-18, xmax 2.41231e-18 1.30013 3.6m 
gts area: 163.391 
yplus max: 165.13, yplus min: 1.41363 
position of yplus max: -12.0258 -1.29323 0.0340221 
yplus prom: 22.8835 
forces: 2389.834915 0.008028 -839.239784 
Drag coefficient: 0.666919 
torque (ref. CG): -0.011240 (roll) -1773.593803 (pitch) -0.048974 (yaw) 
----------------------------------------------------- 
step 12, time 0.009000, maxvel 30.000000, total vol 183256, vol(u>maxvel) 7.22278, cell count 1918432
bounding box (containing cells with vel>maxvel): xmin -12.2807 -1.84742 -0.489157, xmax 0.329671 1.84742 4.05127m 
bounding box of vehicle: xmin -12.2 -1.30007 -6.07152e-18, xmax 2.41231e-18 1.30013 3.6m 
gts area: 163.391 
yplus max: 165.248, yplus min: 1.39891 
position of yplus max: -12.0258 -1.29323 0.0340221 
yplus prom: 22.8767 
forces: 2448.923985 0.008640 -838.435594 
Drag coefficient: 0.683408 
torque (ref. CG): -0.012095 (roll) -1685.963546 (pitch) -0.052701 (yaw) 
----------------------------------------------------- 
step 13, time 0.009750, maxvel 30.000000, total vol 183256, vol(u>maxvel) 7.22729, cell count 1924423
bounding box (containing cells with vel>maxvel): xmin -12.2807 -1.84729 -0.489348, xmax 0.329788 1.84729 4.05127m 
bounding box of vehicle: xmin -12.2 -1.30007 -6.07152e-18, xmax 2.41231e-18 1.30013 3.6m 
gts area: 163.391 
yplus max: 165.355, yplus min: 1.22954 
position of yplus max: -12.0258 -1.29323 0.0340221 
yplus prom: 22.8706 
forces: 2501.678308 0.010655 -837.815914 
Drag coefficient: 0.698130 
torque (ref. CG): -0.014917 (roll) -1608.327446 (pitch) -0.064994 (yaw) 
----------------------------------------------------- 
step 14, time 0.010500, maxvel 30.000000, total vol 183256, vol(u>maxvel) 7.23501, cell count 1930567
bounding box (containing cells with vel>maxvel): xmin -12.2807 -1.81688 -0.489351, xmax 0.345107 1.81688 4.05127m 
bounding box of vehicle: xmin -12.2 -1.30007 -6.07152e-18, xmax 2.41231e-18 1.30013 3.6m 
gts area: 163.391 
yplus max: 165.459, yplus min: 0.929213 
position of yplus max: -12.0258 -1.29323 0.0340221 
yplus prom: 22.8644 
forces: 2548.071222 0.011435 -837.310527 
Drag coefficient: 0.711077 
torque (ref. CG): -0.016008 (roll) -1540.294507 (pitch) -0.069751 (yaw) 
----------------------------------------------------- 
step 15, time 0.011250, maxvel 30.000000, total vol 183256, vol(u>maxvel) 7.24345, cell count 1936620
bounding box (containing cells with vel>maxvel): xmin -12.2807 -1.81685 -0.489351, xmax 0.345265 1.81685 4.05127m 
bounding box of vehicle: xmin -12.2 -1.30007 -6.07152e-18, xmax 2.41231e-18 1.30013 3.6m 
gts area: 163.391 
yplus max: 165.563, yplus min: 0.745719 
position of yplus max: -12.0258 -1.29323 0.0340221 
yplus prom: 22.8575 
forces: 2587.871960 0.011857 -836.815607 
Drag coefficient: 0.722184 
torque (ref. CG): -0.016599 (roll) -1481.554457 (pitch) -0.072326 (yaw) 
----------------------------------------------------- 
step 16, time 0.012000, maxvel 30.000000, total vol 183256, vol(u>maxvel) 7.25674, cell count 1943274
bounding box (containing cells with vel>maxvel): xmin -12.2807 -1.81682 -0.489351, xmax 0.346018 1.81682 4.05127m 
bounding box of vehicle: xmin -12.2 -1.30007 -6.07152e-18, xmax 2.41231e-18 1.30013 3.6m 
gts area: 163.391 
yplus max: 165.668, yplus min: 1.21421 
position of yplus max: -12.0258 -1.29323 0.0340221 
yplus prom: 22.8501 
forces: 2624.113160 0.016874 -836.234964 
Drag coefficient: 0.732297 
torque (ref. CG): -0.023623 (roll) -1427.274857 (pitch) -0.102929 (yaw) 
----------------------------------------------------- 
step 17, time 0.012750, maxvel 30.000000, total vol 183256, vol(u>maxvel) 7.27532, cell count 1949189
bounding box (containing cells with vel>maxvel): xmin -12.2808 -1.81682 -0.489351, xmax 0.360716 1.81682 4.05127m 
bounding box of vehicle: xmin -12.2 -1.30007 -6.07152e-18, xmax 2.41231e-18 1.30013 3.6m 
gts area: 163.391 
yplus max: 165.775, yplus min: 1.1985 
position of yplus max: -12.0258 -1.29323 0.0340221 
yplus prom: 22.8419 
forces: 2655.267349 0.014468 -835.884844 
Drag coefficient: 0.740991 
torque (ref. CG): -0.020255 (roll) -1381.523257 (pitch) -0.088255 (yaw) 
----------------------------------------------------- 
step 18, time 0.013500, maxvel 30.000000, total vol 183256, vol(u>maxvel) 7.29495, cell count 1954907
bounding box (containing cells with vel>maxvel): xmin -12.2808 -1.81678 -0.489351, xmax 0.360865 1.81678 4.05127m 
bounding box of vehicle: xmin -12.2 -1.30007 -6.07152e-18, xmax 2.41231e-18 1.30013 3.6m 
gts area: 163.391 
yplus max: 165.882, yplus min: 1.16481 
position of yplus max: -12.0258 -1.29323 0.0340221 
yplus prom: 22.8331 
forces: 2680.654948 0.015275 -835.778384 
Drag coefficient: 0.748076 
torque (ref. CG): -0.021386 (roll) -1345.331218 (pitch) -0.093180 (yaw) 
----------------------------------------------------- 
step 19, time 0.014250, maxvel 30.000000, total vol 183256, vol(u>maxvel) 7.31102, cell count 1960145
bounding box (containing cells with vel>maxvel): xmin -12.2811 -1.81675 -0.489648, xmax 0.376095 1.81675 4.05127m 
bounding box of vehicle: xmin -12.2 -1.30007 -6.07152e-18, xmax 2.41231e-18 1.30013 3.6m 
gts area: 163.391 
yplus max: 165.989, yplus min: 1.14421 
position of yplus max: -12.0258 -1.29323 0.0340221 
yplus prom: 22.8237 
forces: 2700.918199 0.014024 -835.703291 
Drag coefficient: 0.753731 
torque (ref. CG): -0.019633 (roll) -1316.504595 (pitch) -0.085544 (yaw) 
----------------------------------------------------- 
step 20, time 0.015000, maxvel 30.000000, total vol 183256, vol(u>maxvel) 7.3272, cell count 1965633
bounding box (containing cells with vel>maxvel): xmin -12.2811 -1.81671 -0.489648, xmax 0.376329 1.81671 4.05127m 
bounding box of vehicle: xmin -12.2 -1.30007 -6.07152e-18, xmax 2.41231e-18 1.30013 3.6m 
gts area: 163.391 
yplus max: 166.093, yplus min: 1.13901 
position of yplus max: -12.0258 -1.29323 0.0340221 
yplus prom: 22.8138 
forces: 2717.240532 0.014566 -835.748586 
Drag coefficient: 0.758286 
torque (ref. CG): -0.020393 (roll) -1293.929629 (pitch) -0.088855 (yaw) 
----------------------------------------------------- 
step 21, time 0.015750, maxvel 30.000000, total vol 183256, vol(u>maxvel) 7.34082, cell count 1971120
bounding box (containing cells with vel>maxvel): xmin -12.2811 -1.81668 -0.489648, xmax 0.377259 1.81668 4.05127m 
bounding box of vehicle: xmin -12.2 -1.30007 -6.07152e-18, xmax 2.41231e-18 1.30013 3.6m 
gts area: 163.391 
yplus max: 166.194, yplus min: 1.11155 
position of yplus max: -12.0258 -1.29323 0.0340221 
yplus prom: 22.8032 
forces: 2730.089889 0.025483 -835.970983 
Drag coefficient: 0.761872 
torque (ref. CG): -0.035676 (roll) -1277.297150 (pitch) -0.155447 (yaw) 
----------------------------------------------------- 
step 22, time 0.016500, maxvel 30.000000, total vol 183256, vol(u>maxvel) 7.35284, cell count 1975966
bounding box (containing cells with vel>maxvel): xmin -12.2811 -1.81661 -0.489648, xmax 0.39178 1.81661 4.05127m 
bounding box of vehicle: xmin -12.2 -1.30007 -6.07152e-18, xmax 2.41231e-18 1.30013 3.6m 
gts area: 163.391 
yplus max: 166.292, yplus min: 1.03475 
position of yplus max: -12.0258 -1.29323 0.0340221 
yplus prom: 22.7921 
forces: 2739.728301 0.011997 -836.315933 
Drag coefficient: 0.764561 
torque (ref. CG): -0.016795 (roll) -1265.907568 (pitch) -0.073179 (yaw) 
----------------------------------------------------- 
step 23, time 0.017250, maxvel 30.000000, total vol 183256, vol(u>maxvel) 7.36892, cell count 1981099
bounding box (containing cells with vel>maxvel): xmin -12.2811 -1.81657 -0.489648, xmax 0.392752 1.81657 4.05127m 
bounding box of vehicle: xmin -12.2 -1.30007 -6.07152e-18, xmax 2.41231e-18 1.30013 3.6m 
gts area: 163.391 
yplus max: 166.385, yplus min: 0.973938 
position of yplus max: -12.0258 -1.29323 0.0340221 
yplus prom: 22.7806 
forces: 2746.283360 0.015445 -836.585060 
Drag coefficient: 0.766391 
torque (ref. CG): -0.021623 (roll) -1258.372161 (pitch) -0.094213 (yaw) 
----------------------------------------------------- 
step 24, time 0.018000, maxvel 30.000000, total vol 183256, vol(u>maxvel) 7.38015, cell count 1985681
bounding box (containing cells with vel>maxvel): xmin -12.2811 -1.81653 -0.489648, xmax 0.407377 1.81653 4.05127m 
bounding box of vehicle: xmin -12.2 -1.30007 -6.07152e-18, xmax 2.41231e-18 1.30013 3.6m 
gts area: 163.391 
yplus max: 166.474, yplus min: 0.94126 
position of yplus max: -12.0258 -1.29323 0.0340221 
yplus prom: 22.7684 
forces: 2750.674826 0.011995 -837.095248 
Drag coefficient: 0.767616 
torque (ref. CG): -0.016793 (roll) -1255.336255 (pitch) -0.073168 (yaw) 
----------------------------------------------------- 
step 25, time 0.018750, maxvel 30.000000, total vol 183256, vol(u>maxvel) 7.38926, cell count 1989845
bounding box (containing cells with vel>maxvel): xmin -12.2943 -1.81645 -0.489648, xmax 0.408415 1.81645 4.04901m 
bounding box of vehicle: xmin -12.2 -1.30007 -6.07152e-18, xmax 2.41231e-18 1.30013 3.6m 
gts area: 163.391 
yplus max: 166.557, yplus min: 0.745563 
position of yplus max: -12.0258 -1.29323 0.0340221 
yplus prom: 22.7558 
forces: 2752.741817 0.013122 -837.486256 
Drag coefficient: 0.768193 
torque (ref. CG): -0.018371 (roll) -1254.827616 (pitch) -0.080046 (yaw) 
----------------------------------------------------- 
step 26, time 0.019500, maxvel 30.000000, total vol 183256, vol(u>maxvel) 7.39661, cell count 1993363
bounding box (containing cells with vel>maxvel): xmin -12.2943 -1.81637 -0.489648, xmax 0.410817 1.81637 4.04901m 
bounding box of vehicle: xmin -12.2 -1.30007 -6.07152e-18, xmax 2.41231e-18 1.30013 3.6m 
gts area: 163.391 
yplus max: 166.636, yplus min: 0.909358 
position of yplus max: -12.0258 -1.29323 0.0340221 
yplus prom: 22.7427 
forces: 2753.042573 0.010810 -838.018649 
Drag coefficient: 0.768277 
torque (ref. CG): -0.015133 (roll) -1257.654158 (pitch) -0.065939 (yaw) 
----------------------------------------------------- 
step 27, time 0.020250, maxvel 30.000000, total vol 183256, vol(u>maxvel) 7.40428, cell count 1996858
bounding box (containing cells with vel>maxvel): xmin -12.2943 -1.81624 -0.489648, xmax 0.413026 1.81624 4.04901m 
bounding box of vehicle: xmin -12.2 -1.30007 -6.07152e-18, xmax 2.41231e-18 1.30013 3.6m 
gts area: 163.391 
yplus max: 166.711, yplus min: 0.809482 
position of yplus max: -12.0258 -1.29323 0.0340221 
yplus prom: 22.7289 
forces: 2751.881527 0.000349 -838.433302 
Drag coefficient: 0.767953 
torque (ref. CG): -0.000488 (roll) -1261.809003 (pitch) -0.002127 (yaw) 
----------------------------------------------------- 
step 28, time 0.021000, maxvel 30.000000, total vol 183256, vol(u>maxvel) 7.40891, cell count 1999324
bounding box (containing cells with vel>maxvel): xmin -12.2948 -1.81604 -0.489648, xmax 0.413396 1.81604 4.02786m 
bounding box of vehicle: xmin -12.2 -1.30007 -6.07152e-18, xmax 2.41231e-18 1.30013 3.6m 
gts area: 163.391 
yplus max: 166.781, yplus min: 0.76326 
position of yplus max: -12.0258 -1.29323 0.0340221 
yplus prom: 22.7149 
forces: 2749.492056 0.029240 -838.923348 
Drag coefficient: 0.767286 
torque (ref. CG): -0.040936 (roll) -1268.143546 (pitch) -0.178366 (yaw) 
----------------------------------------------------- 
step 29, time 0.021750, maxvel 30.000000, total vol 183256, vol(u>maxvel) 7.41485, cell count 2001011
bounding box (containing cells with vel>maxvel): xmin -12.2949 -1.81411 -0.489648, xmax 0.43357 1.81411 4.02786m 
bounding box of vehicle: xmin -12.2 -1.30007 -6.07152e-18, xmax 2.41231e-18 1.30013 3.6m 
gts area: 163.391 
yplus max: 166.846, yplus min: 0.678312 
position of yplus max: -12.0258 -1.29323 0.0340221 
yplus prom: 22.7007 
forces: 2745.931593 0.003508 -839.353323 
Drag coefficient: 0.766293 
torque (ref. CG): -0.004911 (roll) -1275.751043 (pitch) -0.021400 (yaw) 
----------------------------------------------------- 
step 30, time 0.022500, maxvel 30.000000, total vol 183256, vol(u>maxvel) 7.42362, cell count 2002942
bounding box (containing cells with vel>maxvel): xmin -12.2949 -1.78575 -0.489648, xmax 0.434115 1.78575 4.02786m 
bounding box of vehicle: xmin -12.2 -1.30007 -6.07152e-18, xmax 2.41231e-18 1.30013 3.6m 
gts area: 163.391 
yplus max: 166.908, yplus min: 0.698406 
position of yplus max: -12.0258 -1.29323 0.0340221 
yplus prom: 22.6862 
forces: 2741.663487 0.011416 -839.755464 
Drag coefficient: 0.765101 
torque (ref. CG): -0.015982 (roll) -1284.179448 (pitch) -0.069636 (yaw) 
----------------------------------------------------- 
step 31, time 0.023250, maxvel 30.000000, total vol 183256, vol(u>maxvel) 7.42509, cell count 2003031
bounding box (containing cells with vel>maxvel): xmin -12.2949 -1.78572 -0.489648, xmax 0.436264 1.78572 4.02786m 
bounding box of vehicle: xmin -12.2 -1.30007 -6.07152e-18, xmax 2.41231e-18 1.30013 3.6m 
gts area: 163.391 
yplus max: 166.965, yplus min: 0.600175 
position of yplus max: -12.0258 -1.29323 0.0340221 
yplus prom: 22.6718 
forces: 2736.589767 0.010168 -840.174103 
Drag coefficient: 0.763686 
torque (ref. CG): -0.014236 (roll) -1293.836352 (pitch) -0.062027 (yaw) 
----------------------------------------------------- 
step 32, time 0.024000, maxvel 30.000000, total vol 183256, vol(u>maxvel) 7.42762, cell count 2002600
bounding box (containing cells with vel>maxvel): xmin -12.2949 -1.78569 -0.489648, xmax 0.462172 1.78569 4.02786m 
bounding box of vehicle: xmin -12.2 -1.30007 -6.07152e-18, xmax 2.41231e-18 1.30013 3.6m 
gts area: 163.391 
yplus max: 167.018, yplus min: 0.588625 
position of yplus max: -12.0258 -1.29323 0.0340221 
yplus prom: 22.6573 
forces: 2730.948629 0.008212 -840.542768 
Drag coefficient: 0.762111 
torque (ref. CG): -0.011496 (roll) -1303.982805 (pitch) -0.050091 (yaw) 
----------------------------------------------------- 
step 33, time 0.024750, maxvel 30.000000, total vol 183256, vol(u>maxvel) 7.43285, cell count 2001817
bounding box (containing cells with vel>maxvel): xmin -12.2949 -1.78562 -0.489648, xmax 0.467024 1.78562 4.02763m 
bounding box of vehicle: xmin -12.2 -1.30007 -6.07152e-18, xmax 2.41231e-18 1.30013 3.6m 
gts area: 163.391 
yplus max: 167.067, yplus min: 0.517294 
position of yplus max: -12.0258 -1.29323 0.0340221 
yplus prom: 22.6431 
forces: 2724.849989 0.007826 -840.891088 
Drag coefficient: 0.760409 
torque (ref. CG): -0.010956 (roll) -1314.645653 (pitch) -0.047736 (yaw) 
----------------------------------------------------- 
step 34, time 0.025500, maxvel 30.000000, total vol 183256, vol(u>maxvel) 7.43849, cell count 2000515
bounding box (containing cells with vel>maxvel): xmin -12.2949 -1.78555 -0.489648, xmax 0.467422 1.78555 4.02541m 
bounding box of vehicle: xmin -12.2 -1.30007 -6.07152e-18, xmax 2.41231e-18 1.30013 3.6m 
gts area: 163.391 
yplus max: 167.112, yplus min: 0.481471 
position of yplus max: -12.0258 -1.29323 0.0340221 
yplus prom: 22.6289 
forces: 2718.465289 0.000434 -841.174778 
Drag coefficient: 0.758628 
torque (ref. CG): -0.000608 (roll) -1325.314742 (pitch) -0.002649 (yaw) 
----------------------------------------------------- 
step 35, time 0.026250, maxvel 30.000000, total vol 183256, vol(u>maxvel) 7.43331, cell count 1997989
bounding box (containing cells with vel>maxvel): xmin -12.2949 -1.78548 -0.489648, xmax 0.468126 1.78548 4.02541m 
bounding box of vehicle: xmin -12.2 -1.30007 -6.07152e-18, xmax 2.41231e-18 1.30013 3.6m 
gts area: 163.391 
yplus max: 167.153, yplus min: 0.498165 
position of yplus max: -12.0258 -1.29323 0.0340221 
yplus prom: 22.6151 
forces: 2711.659708 0.008267 -841.439925 
Drag coefficient: 0.756728 
torque (ref. CG): -0.011574 (roll) -1336.459953 (pitch) -0.050430 (yaw) 
----------------------------------------------------- 
step 36, time 0.027000, maxvel 30.000000, total vol 183256, vol(u>maxvel) 7.4295, cell count 1995408
bounding box (containing cells with vel>maxvel): xmin -12.2949 -1.78541 -0.489648, xmax 0.468574 1.78541 4.02266m 
bounding box of vehicle: xmin -12.2 -1.30007 -6.07152e-18, xmax 2.41231e-18 1.30013 3.6m 
gts area: 163.391 
yplus max: 167.191, yplus min: 0.341403 
position of yplus max: -12.0258 -1.29323 0.0340221 
yplus prom: 22.6016 
forces: 2704.618866 0.010562 -841.744745 
Drag coefficient: 0.754764 
torque (ref. CG): -0.014786 (roll) -1348.176530 (pitch) -0.064426 (yaw) 
----------------------------------------------------- 
step 37, time 0.027750, maxvel 30.000000, total vol 183256, vol(u>maxvel) 7.43157, cell count 1992221
bounding box (containing cells with vel>maxvel): xmin -12.2949 -1.78533 -0.489648, xmax 0.498419 1.78533 4.02168m 
bounding box of vehicle: xmin -12.2 -1.30007 -6.07152e-18, xmax 2.41231e-18 1.30013 3.6m 
gts area: 163.391 
yplus max: 167.225, yplus min: 0.436463 
position of yplus max: -12.0258 -1.29323 0.0340221 
yplus prom: 22.5886 
forces: 2697.380696 0.012142 -841.956133 
Drag coefficient: 0.752744 
torque (ref. CG): -0.016998 (roll) -1359.599434 (pitch) -0.074063 (yaw) 
----------------------------------------------------- 
step 38, time 0.028500, maxvel 30.000000, total vol 183256, vol(u>maxvel) 7.42368, cell count 1987650
bounding box (containing cells with vel>maxvel): xmin -12.2954 -1.78518 -0.489648, xmax 0.498688 1.78518 4.01212m 
bounding box of vehicle: xmin -12.2 -1.30007 -6.07152e-18, xmax 2.41231e-18 1.30013 3.6m 
gts area: 163.391 
yplus max: 167.256, yplus min: 0.160891 
position of yplus max: -12.0258 -1.29323 0.0340221 
yplus prom: 22.576 
forces: 2690.138784 0.003322 -842.191635 
Drag coefficient: 0.750723 
torque (ref. CG): -0.004651 (roll) -1371.174678 (pitch) -0.020266 (yaw) 
----------------------------------------------------- 
step 39, time 0.029250, maxvel 30.000000, total vol 183256, vol(u>maxvel) 7.41782, cell count 1982939
bounding box (containing cells with vel>maxvel): xmin -12.2954 -1.78338 -0.489648, xmax 0.499644 1.78338 4.00991m 
bounding box of vehicle: xmin -12.2 -1.30007 -6.07152e-18, xmax 2.41231e-18 1.30013 3.6m 
gts area: 163.391 
yplus max: 167.284, yplus min: 0.375744 
position of yplus max: -12.0258 -1.29323 0.0340221 
yplus prom: 22.564 
forces: 2682.776761 0.002852 -842.256327 
Drag coefficient: 0.748668 
torque (ref. CG): -0.003993 (roll) -1381.876132 (pitch) -0.017400 (yaw) 
----------------------------------------------------- 
step 40, time 0.030000, maxvel 30.000000, total vol 183256, vol(u>maxvel) 7.41139, cell count 1977437
bounding box (containing cells with vel>maxvel): xmin -12.2954 -1.78327 -0.489648, xmax 0.528823 1.78327 4.00991m 
bounding box of vehicle: xmin -12.2 -1.30007 -6.07152e-18, xmax 2.41231e-18 1.30013 3.6m 
gts area: 163.391 
yplus max: 167.309, yplus min: 0.505071 
position of yplus max: -12.0258 -1.29323 0.0340221 
yplus prom: 22.5521 
forces: 2675.196247 0.004978 -842.459277 
Drag coefficient: 0.746553 
torque (ref. CG): -0.006969 (roll) -1393.726844 (pitch) -0.030363 (yaw) 
----------------------------------------------------- 
step 41, time 0.030750, maxvel 30.000000, total vol 183256, vol(u>maxvel) 7.40915, cell count 1972042
bounding box (containing cells with vel>maxvel): xmin -12.2954 -1.78312 -0.489648, xmax 0.529536 1.78312 4.00707m 
bounding box of vehicle: xmin -12.2 -1.30007 -6.07152e-18, xmax 2.41231e-18 1.30013 3.6m 
gts area: 163.391 
yplus max: 167.331, yplus min: 0.313932 
position of yplus max: -12.0258 -1.29323 0.0340221 
yplus prom: 22.5405 
forces: 2667.568468 0.008080 -842.477296 
Drag coefficient: 0.744424 
torque (ref. CG): -0.011312 (roll) -1404.515652 (pitch) -0.049288 (yaw) 
----------------------------------------------------- 
step 42, time 0.031500, maxvel 30.000000, total vol 183256, vol(u>maxvel) 7.40152, cell count 1966219
bounding box (containing cells with vel>maxvel): xmin -12.2954 -1.7805 -0.489648, xmax 0.529774 1.7805 4.00707m 
bounding box of vehicle: xmin -12.2 -1.30007 -6.07152e-18, xmax 2.41231e-18 1.30013 3.6m 
gts area: 163.391 
yplus max: 167.351, yplus min: 0.36075 
position of yplus max: -12.0258 -1.29323 0.0340221 
yplus prom: 22.529 
forces: 2659.738419 0.010114 -842.621912 
Drag coefficient: 0.742239 
torque (ref. CG): -0.014159 (roll) -1416.359874 (pitch) -0.061693 (yaw) 
----------------------------------------------------- 
step 43, time 0.032250, maxvel 30.000000, total vol 183256, vol(u>maxvel) 7.3887, cell count 1959330
bounding box (containing cells with vel>maxvel): xmin -12.2954 -1.77956 -0.489648, xmax 0.53077 1.77956 4.00612m 
bounding box of vehicle: xmin -12.2 -1.30007 -6.07152e-18, xmax 2.41231e-18 1.30013 3.6m 
gts area: 163.391 
yplus max: 167.368, yplus min: 0.282669 
position of yplus max: -12.0258 -1.29323 0.0340221 
yplus prom: 22.5179 
forces: 2651.742859 0.011145 -842.676573 
Drag coefficient: 0.740008 
torque (ref. CG): -0.015603 (roll) -1427.887091 (pitch) -0.067983 (yaw) 
----------------------------------------------------- 
step 44, time 0.033000, maxvel 30.000000, total vol 183256, vol(u>maxvel) 7.37942, cell count 1952493
bounding box (containing cells with vel>maxvel): xmin -12.2954 -1.7793 -0.489648, xmax 0.560313 1.7793 4.00602m 
bounding box of vehicle: xmin -12.2 -1.30007 -6.07152e-18, xmax 2.41231e-18 1.30013 3.6m 
gts area: 163.391 
yplus max: 167.383, yplus min: 0.516865 
position of yplus max: -12.0258 -1.29323 0.0340221 
yplus prom: 22.5073 
forces: 2643.861213 0.007005 -842.652227 
Drag coefficient: 0.737808 
torque (ref. CG): -0.009807 (roll) -1438.772887 (pitch) -0.042728 (yaw) 
----------------------------------------------------- 
step 45, time 0.033750, maxvel 30.000000, total vol 183256, vol(u>maxvel) 7.37246, cell count 1945312
bounding box (containing cells with vel>maxvel): xmin -12.2954 -1.75428 -0.489648, xmax 0.560661 1.75428 3.99439m 
bounding box of vehicle: xmin -12.2 -1.30007 -6.07152e-18, xmax 2.41231e-18 1.30013 3.6m 
gts area: 163.391 
yplus max: 167.396, yplus min: 0.532356 
position of yplus max: -12.0258 -1.29323 0.0340221 
yplus prom: 22.4972 
forces: 2635.682205 0.007908 -842.679492 
Drag coefficient: 0.735526 
torque (ref. CG): -0.011071 (roll) -1450.389817 (pitch) -0.048236 (yaw) 
----------------------------------------------------- 
step 46, time 0.034500, maxvel 30.000000, total vol 183256, vol(u>maxvel) 7.36057, cell count 1937041
bounding box (containing cells with vel>maxvel): xmin -12.2955 -1.75404 -0.489648, xmax 0.560856 1.75404 3.99153m 
bounding box of vehicle: xmin -12.2 -1.30007 -6.07152e-18, xmax 2.41231e-18 1.30013 3.6m 
gts area: 163.391 
yplus max: 167.407, yplus min: 0.543978 
position of yplus max: -12.0258 -1.29323 0.0340221 
yplus prom: 22.4874 
forces: 2627.402730 0.013500 -842.782662 
Drag coefficient: 0.733215 
torque (ref. CG): -0.018901 (roll) -1462.610418 (pitch) -0.082353 (yaw) 
----------------------------------------------------- 
step 47, time 0.035250, maxvel 30.000000, total vol 183256, vol(u>maxvel) 7.34723, cell count 1929258
bounding box (containing cells with vel>maxvel): xmin -12.2955 -1.75341 -0.489648, xmax 0.561841 1.75337 3.99059m 
bounding box of vehicle: xmin -12.2 -1.30007 -6.07152e-18, xmax 2.41231e-18 1.30013 3.6m 
gts area: 163.391 
yplus max: 167.417, yplus min: 0.858677 
position of yplus max: -12.0258 -1.29323 0.0340221 
yplus prom: 22.4776 
forces: 2619.361819 -0.001043 -842.598409 
Drag coefficient: 0.730971 
torque (ref. CG): 0.001461 (roll) -1472.743746 (pitch) 0.006365 (yaw) 
----------------------------------------------------- 
step 48, time 0.036000, maxvel 30.000000, total vol 183256, vol(u>maxvel) 7.33546, cell count 1921006
bounding box (containing cells with vel>maxvel): xmin -12.2955 -1.75328 -0.489648, xmax 0.591524 1.75324 3.9905m 
bounding box of vehicle: xmin -12.2 -1.30007 -6.07152e-18, xmax 2.41231e-18 1.30013 3.6m 
gts area: 163.391 
yplus max: 167.425, yplus min: 0.888935 
position of yplus max: -12.0258 -1.29323 0.0340221 
yplus prom: 22.4679 
forces: 2611.122810 0.029246 -842.568395 
Drag coefficient: 0.728672 
torque (ref. CG): -0.040944 (roll) -1484.095277 (pitch) -0.178401 (yaw) 
----------------------------------------------------- 
step 49, time 0.036750, maxvel 30.000000, total vol 183256, vol(u>maxvel) 7.32886, cell count 1913467
bounding box (containing cells with vel>maxvel): xmin -12.2955 -1.75194 -0.489648, xmax 0.591753 1.75194 3.99049m 
bounding box of vehicle: xmin -12.2 -1.30007 -6.07152e-18, xmax 2.41231e-18 1.30013 3.6m 
gts area: 163.391 
yplus max: 167.432, yplus min: 0.958472 
position of yplus max: -12.0258 -1.29323 0.0340221 
yplus prom: 22.4582 
forces: 2602.766475 -0.004713 -842.471375 
Drag coefficient: 0.726340 
torque (ref. CG): 0.006598 (roll) -1495.202322 (pitch) 0.028749 (yaw) 
----------------------------------------------------- 
step 50, time 0.037500, maxvel 30.000000, total vol 183256, vol(u>maxvel) 7.31832, cell count 1904662
bounding box (containing cells with vel>maxvel): xmin -12.2955 -1.7495 -0.489972, xmax 0.591929 1.7495 3.99048m 
bounding box of vehicle: xmin -12.2 -1.30007 -6.07152e-18, xmax 2.41231e-18 1.30013 3.6m 
gts area: 163.391 
yplus max: 167.438, yplus min: 1.0581 
position of yplus max: -12.0258 -1.29323 0.0340221 
yplus prom: 22.4485 
forces: 2594.435145 0.008543 -842.483028 
Drag coefficient: 0.724015 
torque (ref. CG): -0.011960 (roll) -1506.937271 (pitch) -0.052110 (yaw) 
----------------------------------------------------- 
step 51, time 0.038250, maxvel 30.000000, total vol 183256, vol(u>maxvel) 7.30563, cell count 1896118
bounding box (containing cells with vel>maxvel): xmin -12.2955 -1.74931 -0.489972, xmax 0.622205 1.74931 3.99046m 
bounding box of vehicle: xmin -12.2 -1.30007 -6.07152e-18, xmax 2.41231e-18 1.30013 3.6m 
gts area: 163.391 
yplus max: 167.443, yplus min: 1.14688 
position of yplus max: -12.0258 -1.29323 0.0340221 
yplus prom: 22.4388 
forces: 2586.237213 0.020148 -842.213148 
Drag coefficient: 0.721727 
torque (ref. CG): -0.028207 (roll) -1516.768106 (pitch) -0.122902 (yaw) 
----------------------------------------------------- 
step 52, time 0.039000, maxvel 30.000000, total vol 183256, vol(u>maxvel) 7.29641, cell count 1887727
bounding box (containing cells with vel>maxvel): xmin -12.2955 -1.74853 -0.489972, xmax 0.622641 1.74853 3.97496m 
bounding box of vehicle: xmin -12.2 -1.30007 -6.07152e-18, xmax 2.41231e-18 1.30013 3.6m 
gts area: 163.391 
yplus max: 167.448, yplus min: 0.961944 
position of yplus max: -12.0258 -1.29323 0.0340221 
yplus prom: 22.4292 
forces: 2577.786589 -0.006390 -842.158464 
Drag coefficient: 0.719369 
torque (ref. CG): 0.008947 (roll) -1528.265408 (pitch) 0.038982 (yaw) 
----------------------------------------------------- 
step 53, time 0.039750, maxvel 30.000000, total vol 183256, vol(u>maxvel) 7.28735, cell count 1879879
bounding box (containing cells with vel>maxvel): xmin -12.2955 -1.74848 -0.489972, xmax 0.622866 1.74848 3.97495m 
bounding box of vehicle: xmin -12.2 -1.30007 -6.07152e-18, xmax 2.41231e-18 1.30013 3.6m 
gts area: 163.391 
yplus max: 167.451, yplus min: 0.554333 
position of yplus max: -12.0258 -1.29323 0.0340221 
yplus prom: 22.4196 
forces: 2569.567135 0.025724 -841.949510 
Drag coefficient: 0.717075 
torque (ref. CG): -0.036013 (roll) -1538.498022 (pitch) -0.156915 (yaw) 
----------------------------------------------------- 
step 54, time 0.040500, maxvel 30.000000, total vol 183256, vol(u>maxvel) 7.27422, cell count 1871062
bounding box (containing cells with vel>maxvel): xmin -12.2955 -1.74842 -0.490273, xmax 0.622972 1.74842 3.97495m 
bounding box of vehicle: xmin -12.2 -1.30007 -6.07152e-18, xmax 2.41231e-18 1.30013 3.6m 
gts area: 163.391 
yplus max: 167.455, yplus min: 0.320603 
position of yplus max: -12.0258 -1.29323 0.0340221 
yplus prom: 22.41 
forces: 2561.262131 0.005075 -841.694185 
Drag coefficient: 0.714758 
torque (ref. CG): -0.007105 (roll) -1548.567544 (pitch) -0.030959 (yaw) 
----------------------------------------------------- 
step 55, time 0.041250, maxvel 30.000000, total vol 183256, vol(u>maxvel) 7.26248, cell count 1862931
bounding box (containing cells with vel>maxvel): xmin -12.2955 -1.74834 -0.490273, xmax 0.653457 1.74834 3.97494m 
bounding box of vehicle: xmin -12.2 -1.30007 -6.07152e-18, xmax 2.41231e-18 1.30013 3.6m 
gts area: 163.391 
yplus max: 167.457, yplus min: 0.633134 
position of yplus max: -12.0258 -1.29323 0.0340221 
yplus prom: 22.4005 
forces: 2552.964909 0.005165 -841.538660 
Drag coefficient: 0.712442 
torque (ref. CG): -0.007231 (roll) -1559.234954 (pitch) -0.031507 (yaw) 
----------------------------------------------------- 
step 56, time 0.042000, maxvel 30.000000, total vol 183256, vol(u>maxvel) 7.25434, cell count 1854233
bounding box (containing cells with vel>maxvel): xmin -12.2955 -1.74823 -0.490273, xmax 0.653755 1.74823 3.97491m 
bounding box of vehicle: xmin -12.2 -1.30007 -6.07152e-18, xmax 2.41231e-18 1.30013 3.6m 
gts area: 163.391 
yplus max: 167.459, yplus min: 0.974491 
position of yplus max: -12.0258 -1.29323 0.0340221 
yplus prom: 22.391 
forces: 2544.708680 0.008150 -841.324413 
Drag coefficient: 0.710138 
torque (ref. CG): -0.011410 (roll) -1569.486769 (pitch) -0.049714 (yaw) 
----------------------------------------------------- 
step 57, time 0.042750, maxvel 30.000000, total vol 183256, vol(u>maxvel) 7.24163, cell count 1845907
bounding box (containing cells with vel>maxvel): xmin -12.2955 -1.72291 -0.490273, xmax 0.65391 1.72289 3.97489m 
bounding box of vehicle: xmin -12.2 -1.30007 -6.07152e-18, xmax 2.41231e-18 1.30013 3.6m 
gts area: 163.391 
yplus max: 167.461, yplus min: 0.782452 
position of yplus max: -12.0258 -1.29323 0.0340221 
yplus prom: 22.3816 
forces: 2536.481247 0.006024 -841.074015 
Drag coefficient: 0.707842 
torque (ref. CG): -0.008434 (roll) -1579.477746 (pitch) -0.036747 (yaw) 
----------------------------------------------------- 
step 58, time 0.043500, maxvel 30.000000, total vol 183256, vol(u>maxvel) 7.22539, cell count 1837153
bounding box (containing cells with vel>maxvel): xmin -12.2955 -1.72291 -0.490539, xmax 0.654019 1.72289 3.97486m 
bounding box of vehicle: xmin -12.2 -1.30007 -6.07152e-18, xmax 2.41231e-18 1.30013 3.6m 
gts area: 163.391 
yplus max: 167.462, yplus min: 0.545768 
position of yplus max: -12.0258 -1.29323 0.0340221 
yplus prom: 22.3723 
forces: 2528.286066 0.007702 -840.812433 
Drag coefficient: 0.705555 
torque (ref. CG): -0.010783 (roll) -1589.355351 (pitch) -0.046985 (yaw) 
----------------------------------------------------- 
step 59, time 0.044250, maxvel 30.000000, total vol 183256, vol(u>maxvel) 7.21739, cell count 1828807
bounding box (containing cells with vel>maxvel): xmin -12.2955 -1.72291 -0.490539, xmax 0.68463 1.72289 3.96047m 
bounding box of vehicle: xmin -12.2 -1.30007 -6.07152e-18, xmax 2.41231e-18 1.30013 3.6m 
gts area: 163.391 
yplus max: 167.464, yplus min: 0.995655 
position of yplus max: -12.0258 -1.29323 0.0340221 
yplus prom: 22.363 
forces: 2520.149018 0.026010 -840.507809 
Drag coefficient: 0.703285 
torque (ref. CG): -0.036414 (roll) -1598.889011 (pitch) -0.158660 (yaw) 
----------------------------------------------------- 
step 60, time 0.045000, maxvel 30.000000, total vol 183256, vol(u>maxvel) 7.20804, cell count 1820505
bounding box (containing cells with vel>maxvel): xmin -12.2955 -1.72291 -0.490539, xmax 0.684841 1.72289 3.96047m 
bounding box of vehicle: xmin -12.2 -1.30007 -6.07152e-18, xmax 2.41231e-18 1.30013 3.6m 
gts area: 163.391 
yplus max: 167.464, yplus min: 0.459828 
position of yplus max: -12.0258 -1.29323 0.0340221 
yplus prom: 22.3537 
forces: 2512.032710 0.003504 -840.233685 
Drag coefficient: 0.701020 
torque (ref. CG): -0.004905 (roll) -1608.579685 (pitch) -0.021373 (yaw) 
----------------------------------------------------- 
step 61, time 0.045750, maxvel 30.000000, total vol 183256, vol(u>maxvel) 7.19399, cell count 1811247
bounding box (containing cells with vel>maxvel): xmin -12.2955 -1.72287 -0.490539, xmax 0.684996 1.72285 3.96047m 
bounding box of vehicle: xmin -12.2 -1.30007 -6.07152e-18, xmax 2.41231e-18 1.30013 3.6m 
gts area: 163.391 
yplus max: 167.465, yplus min: 0.76627 
position of yplus max: -12.0258 -1.29323 0.0340221 
yplus prom: 22.3444 
forces: 2503.976863 0.007562 -839.909159 
Drag coefficient: 0.698772 
torque (ref. CG): -0.010586 (roll) -1617.878263 (pitch) -0.046126 (yaw) 
----------------------------------------------------- 
step 62, time 0.046500, maxvel 30.000000, total vol 183256, vol(u>maxvel) 7.1813, cell count 1803091
bounding box (containing cells with vel>maxvel): xmin -12.2955 -1.72287 -0.490772, xmax 0.715344 1.72285 3.95953m 
bounding box of vehicle: xmin -12.2 -1.30007 -6.07152e-18, xmax 2.41231e-18 1.30013 3.6m 
gts area: 163.391 
yplus max: 167.466, yplus min: 0.933283 
position of yplus max: -12.0258 -1.29323 0.0340221 
yplus prom: 22.3351 
forces: 2495.986966 0.007713 -839.576281 
Drag coefficient: 0.696542 
torque (ref. CG): -0.010798 (roll) -1627.033563 (pitch) -0.047047 (yaw) 
----------------------------------------------------- 
step 63, time 0.047250, maxvel 30.000000, total vol 183256, vol(u>maxvel) 7.1663, cell count 1793958
bounding box (containing cells with vel>maxvel): xmin -12.2955 -1.72287 -0.490772, xmax 0.71572 1.72285 3.95953m 
bounding box of vehicle: xmin -12.2 -1.30007 -6.07152e-18, xmax 2.41231e-18 1.30013 3.6m 
gts area: 163.391 
yplus max: 167.466, yplus min: 0.714409 
position of yplus max: -12.0258 -1.29323 0.0340221 
yplus prom: 22.3259 
forces: 2488.067063 0.006868 -839.218086 
Drag coefficient: 0.694332 
torque (ref. CG): -0.009615 (roll) -1635.936434 (pitch) -0.041895 (yaw) 
----------------------------------------------------- 
step 64, time 0.048000, maxvel 30.000000, total vol 183256, vol(u>maxvel) 7.15466, cell count 1785290
bounding box (containing cells with vel>maxvel): xmin -12.2955 -1.72287 -0.490772, xmax 0.715931 1.72285 3.95943m 
bounding box of vehicle: xmin -12.2 -1.30007 -6.07152e-18, xmax 2.41231e-18 1.30013 3.6m 
gts area: 163.391 
yplus max: 167.466, yplus min: 0.96086 
position of yplus max: -12.0258 -1.29323 0.0340221 
yplus prom: 22.3166 
forces: 2480.222790 0.005839 -838.846504 
Drag coefficient: 0.692143 
torque (ref. CG): -0.008175 (roll) -1644.651769 (pitch) -0.035620 (yaw) 
----------------------------------------------------- 
step 65, time 0.048750, maxvel 30.000000, total vol 183256, vol(u>maxvel) 7.13766, cell count 1776073
bounding box (containing cells with vel>maxvel): xmin -12.2955 -1.72286 -0.490772, xmax 0.716049 1.72284 3.95943m 
bounding box of vehicle: xmin -12.2 -1.30007 -6.07152e-18, xmax 2.41231e-18 1.30013 3.6m 
gts area: 163.391 
yplus max: 167.466, yplus min: 0.774558 
position of yplus max: -12.0258 -1.29323 0.0340221 
yplus prom: 22.3074 
forces: 2472.464366 0.004602 -838.454366 
Drag coefficient: 0.689978 
torque (ref. CG): -0.006443 (roll) -1653.121520 (pitch) -0.028072 (yaw) 
----------------------------------------------------- 
step 66, time 0.049500, maxvel 30.000000, total vol 183256, vol(u>maxvel) 7.11809, cell count 1766750
bounding box (containing cells with vel>maxvel): xmin -12.2955 -1.72286 -0.490974, xmax 0.746538 1.72284 3.9592m 
bounding box of vehicle: xmin -12.2 -1.30007 -6.07152e-18, xmax 2.41231e-18 1.30013 3.6m 
gts area: 163.391 
yplus max: 167.466, yplus min: 0.882858 
position of yplus max: -12.0258 -1.29323 0.0340221 
yplus prom: 22.2983 
forces: 2464.798987 0.008767 -838.044876 
Drag coefficient: 0.687838 
torque (ref. CG): -0.012274 (roll) -1661.355160 (pitch) -0.053479 (yaw) 
----------------------------------------------------- 
step 67, time 0.050250, maxvel 30.000000, total vol 183256, vol(u>maxvel) 7.10415, cell count 1757895
bounding box (containing cells with vel>maxvel): xmin -12.2955 -1.72286 -0.490974, xmax 0.746816 1.72284 3.95008m 
bounding box of vehicle: xmin -12.2 -1.30007 -6.07152e-18, xmax 2.41231e-18 1.30013 3.6m 
gts area: 163.391 
yplus max: 167.466, yplus min: 0.676676 
position of yplus max: -12.0258 -1.29323 0.0340221 
yplus prom: 22.2891 
forces: 2457.234007 0.006069 -837.625198 
Drag coefficient: 0.685727 
torque (ref. CG): -0.008496 (roll) -1669.386097 (pitch) -0.037018 (yaw) 
----------------------------------------------------- 
step 68, time 0.051000, maxvel 30.000000, total vol 183256, vol(u>maxvel) 7.08546, cell count 1748109
bounding box (containing cells with vel>maxvel): xmin -12.2955 -1.72286 -0.490974, xmax 0.746986 1.72284 3.95008m 
bounding box of vehicle: xmin -12.2 -1.30007 -6.07152e-18, xmax 2.41231e-18 1.30013 3.6m 
gts area: 163.391 
yplus max: 167.466, yplus min: 0.574281 
position of yplus max: -12.0258 -1.29323 0.0340221 
yplus prom: 22.2799 
forces: 2449.776481 0.001949 -837.187881 
Drag coefficient: 0.683646 
torque (ref. CG): -0.002729 (roll) -1677.158998 (pitch) -0.011892 (yaw) 
----------------------------------------------------- 
step 69, time 0.051750, maxvel 30.000000, total vol 183256, vol(u>maxvel) 7.06938, cell count 1738808
bounding box (containing cells with vel>maxvel): xmin -12.2955 -1.72286 -0.491151, xmax 0.747067 1.72284 3.95008m 
bounding box of vehicle: xmin -12.2 -1.30007 -6.07152e-18, xmax 2.41231e-18 1.30013 3.6m 
gts area: 163.391 
yplus max: 167.466, yplus min: 0.546451 
position of yplus max: -12.0258 -1.29323 0.0340221 
yplus prom: 22.2708 
forces: 2442.435247 0.005771 -836.733939 
Drag coefficient: 0.681597 
torque (ref. CG): -0.008080 (roll) -1684.667681 (pitch) -0.035206 (yaw) 
----------------------------------------------------- 
step 70, time 0.052500, maxvel 30.000000, total vol 183256, vol(u>maxvel) 7.0495, cell count 1728831
bounding box (containing cells with vel>maxvel): xmin -12.2955 -1.72282 -0.491151, xmax 0.777687 1.7228 3.95007m 
bounding box of vehicle: xmin -12.2 -1.30007 -6.07152e-18, xmax 2.41231e-18 1.30013 3.6m 
gts area: 163.391 
yplus max: 167.465, yplus min: 0.889664 
position of yplus max: -12.0258 -1.29323 0.0340221 
yplus prom: 22.2617 
forces: 2435.214339 0.005712 -836.270219 
Drag coefficient: 0.679582 
torque (ref. CG): -0.007997 (roll) -1691.948263 (pitch) -0.034842 (yaw) 
----------------------------------------------------- 
step 71, time 0.053250, maxvel 30.000000, total vol 183256, vol(u>maxvel) 7.02964, cell count 1719043
bounding box (containing cells with vel>maxvel): xmin -12.2955 -1.72282 -0.491151, xmax 0.777871 1.7228 3.94783m 
bounding box of vehicle: xmin -12.2 -1.30007 -6.07152e-18, xmax 2.41231e-18 1.30013 3.6m 
gts area: 163.391 
yplus max: 167.465, yplus min: 0.816772 
position of yplus max: -12.0258 -1.29323 0.0340221 
yplus prom: 22.2527 
forces: 2428.101387 0.005686 -835.782432 
Drag coefficient: 0.677597 
torque (ref. CG): -0.007960 (roll) -1698.930891 (pitch) -0.034684 (yaw) 
----------------------------------------------------- 
step 72, time 0.054000, maxvel 30.000000, total vol 183256, vol(u>maxvel) 7.00763, cell count 1709266
bounding box (containing cells with vel>maxvel): xmin -12.2955 -1.72282 -0.491151, xmax 0.778044 1.7228 3.94783m 
bounding box of vehicle: xmin -12.2 -1.30007 -6.07152e-18, xmax 2.41231e-18 1.30013 3.6m 
gts area: 163.391 
yplus max: 167.464, yplus min: 0.870882 
position of yplus max: -12.0258 -1.29323 0.0340221 
yplus prom: 22.2437 
forces: 2421.135001 0.006802 -835.269996 
Drag coefficient: 0.675653 
torque (ref. CG): -0.009523 (roll) -1705.557975 (pitch) -0.041495 (yaw) 
----------------------------------------------------- 
step 73, time 0.054750, maxvel 30.000000, total vol 183256, vol(u>maxvel) 6.98382, cell count 1698887
bounding box (containing cells with vel>maxvel): xmin -12.2958 -1.72282 -0.491303, xmax 0.808333 1.7228 3.94783m 
bounding box of vehicle: xmin -12.2 -1.30007 -6.07152e-18, xmax 2.41231e-18 1.30013 3.6m 
gts area: 163.391 
yplus max: 167.464, yplus min: 0.869078 
position of yplus max: -12.0258 -1.29323 0.0340221 
yplus prom: 22.2347 
forces: 2414.320547 0.009658 -834.741566 
Drag coefficient: 0.673752 
torque (ref. CG): -0.013521 (roll) -1711.874787 (pitch) -0.058913 (yaw) 
----------------------------------------------------- 
step 74, time 0.055500, maxvel 30.000000, total vol 183256, vol(u>maxvel) 6.96379, cell count 1688840
bounding box (containing cells with vel>maxvel): xmin -12.2958 -1.72282 -0.491303, xmax 0.808745 1.7228 3.94783m 
bounding box of vehicle: xmin -12.2 -1.30007 -6.07152e-18, xmax 2.41231e-18 1.30013 3.6m 
gts area: 163.391 
yplus max: 167.463, yplus min: 0.879632 
position of yplus max: -12.0258 -1.29323 0.0340221 
yplus prom: 22.2258 
forces: 2407.664764 0.006271 -834.196092 
Drag coefficient: 0.671894 
torque (ref. CG): -0.008779 (roll) -1717.865491 (pitch) -0.038251 (yaw) 
----------------------------------------------------- 
step 75, time 0.056250, maxvel 30.000000, total vol 183256, vol(u>maxvel) 6.94313, cell count 1678425
bounding box (containing cells with vel>maxvel): xmin -12.2958 -1.72282 -0.491303, xmax 0.808931 1.7228 3.94783m 
bounding box of vehicle: xmin -12.2 -1.30007 -6.07152e-18, xmax 2.41231e-18 1.30013 3.6m 
gts area: 163.391 
yplus max: 167.463, yplus min: 0.864841 
position of yplus max: -12.0258 -1.29323 0.0340221 
yplus prom: 22.2169 
forces: 2401.158954 0.006590 -833.636747 
Drag coefficient: 0.670079 
torque (ref. CG): -0.009226 (roll) -1723.561624 (pitch) -0.040198 (yaw) 
----------------------------------------------------- 
step 76, time 0.057000, maxvel 30.000000, total vol 183256, vol(u>maxvel) 6.91607, cell count 1667594
bounding box (containing cells with vel>maxvel): xmin -12.2958 -1.72282 -0.491436, xmax 0.809064 1.7228 3.94783m 
bounding box of vehicle: xmin -12.2 -1.30007 -6.07152e-18, xmax 2.41231e-18 1.30013 3.6m 
gts area: 163.391 
yplus max: 167.462, yplus min: 0.703976 
position of yplus max: -12.0258 -1.29323 0.0340221 
yplus prom: 22.208 
forces: 2394.792588 0.007147 -833.045649 
Drag coefficient: 0.668302 
torque (ref. CG): -0.010006 (roll) -1728.868836 (pitch) -0.043596 (yaw) 
----------------------------------------------------- 
step 77, time 0.057750, maxvel 30.000000, total vol 183256, vol(u>maxvel) 6.8847, cell count 1655934
bounding box (containing cells with vel>maxvel): xmin -12.2958 -1.72282 -0.491436, xmax 0.8395 1.7228 3.94783m 
bounding box of vehicle: xmin -12.2 -1.30007 -6.07152e-18, xmax 2.41231e-18 1.30013 3.6m 
gts area: 163.391 
yplus max: 167.461, yplus min: 0.324384 
position of yplus max: -12.0258 -1.29323 0.0340221 
yplus prom: 22.1991 
forces: 2388.568978 0.008348 -832.454997 
Drag coefficient: 0.666565 
torque (ref. CG): -0.011687 (roll) -1733.978912 (pitch) -0.050923 (yaw) 
----------------------------------------------------- 
step 78, time 0.058500, maxvel 30.000000, total vol 183256, vol(u>maxvel) 6.85727, cell count 1644482
bounding box (containing cells with vel>maxvel): xmin -12.2958 -1.72282 -0.491436, xmax 0.839855 1.7228 3.94783m 
bounding box of vehicle: xmin -12.2 -1.30007 -6.07152e-18, xmax 2.41231e-18 1.30013 3.6m 
gts area: 163.391 
yplus max: 167.461, yplus min: 0.716346 
position of yplus max: -12.0258 -1.29323 0.0340221 
yplus prom: 22.1903 
forces: 2382.480073 0.006061 -831.836936 
Drag coefficient: 0.664866 
torque (ref. CG): -0.008485 (roll) -1738.733209 (pitch) -0.036970 (yaw) 
----------------------------------------------------- 
step 79, time 0.059250, maxvel 30.000000, total vol 183256, vol(u>maxvel) 6.83105, cell count 1633634
bounding box (containing cells with vel>maxvel): xmin -12.2958 -1.72282 -0.491436, xmax 0.839995 1.7228 3.94783m 
bounding box of vehicle: xmin -12.2 -1.30007 -6.07152e-18, xmax 2.41231e-18 1.30013 3.6m 
gts area: 163.391 
yplus max: 167.46, yplus min: 0.949749 
position of yplus max: -12.0258 -1.29323 0.0340221 
yplus prom: 22.1815 
forces: 2376.532707 0.008807 -831.216049 
Drag coefficient: 0.663206 
torque (ref. CG): -0.012330 (roll) -1743.272107 (pitch) -0.053722 (yaw) 
----------------------------------------------------- 
step 80, time 0.060000, maxvel 30.000000, total vol 183256, vol(u>maxvel) 6.80476, cell count 1622720
bounding box (containing cells with vel>maxvel): xmin -12.2958 -1.72282 -0.491551, xmax 0.840129 1.7228 3.94495m 
bounding box of vehicle: xmin -12.2 -1.30007 -6.07152e-18, xmax 2.41231e-18 1.30013 3.6m 
gts area: 163.391 
yplus max: 167.459, yplus min: 0.908958 
position of yplus max: -12.0258 -1.29323 0.0340221 
yplus prom: 22.1727 
forces: 2370.700720 0.016833 -830.548898 
Drag coefficient: 0.661579 
torque (ref. CG): -0.023566 (roll) -1747.367272 (pitch) -0.102682 (yaw) 
----------------------------------------------------- 
step 81, time 0.060750, maxvel 30.000000, total vol 183256, vol(u>maxvel) 6.77975, cell count 1612525
bounding box (containing cells with vel>maxvel): xmin -12.2958 -1.72282 -0.491551, xmax 0.870617 1.7228 3.94495m 
bounding box of vehicle: xmin -12.2 -1.30007 -6.07152e-18, xmax 2.41231e-18 1.30013 3.6m 
gts area: 163.391 
yplus max: 167.458, yplus min: 0.910938 
position of yplus max: -12.0258 -1.29323 0.0340221 
yplus prom: 22.164 
forces: 2365.024764 0.008986 -829.935223 
Drag coefficient: 0.659995 
torque (ref. CG): -0.012581 (roll) -1751.570193 (pitch) -0.054816 (yaw) 
----------------------------------------------------- 
step 82, time 0.061500, maxvel 30.000000, total vol 183256, vol(u>maxvel) 6.75554, cell count 1602566
bounding box (containing cells with vel>maxvel): xmin -12.2958 -1.72282 -0.491551, xmax 0.870872 1.7228 3.94495m 
bounding box of vehicle: xmin -12.2 -1.30007 -6.07152e-18, xmax 2.41231e-18 1.30013 3.6m 
gts area: 163.391 
yplus max: 167.457, yplus min: 0.946674 
position of yplus max: -12.0258 -1.29323 0.0340221 
yplus prom: 22.1553 
forces: 2359.473664 0.003176 -829.291989 
Drag coefficient: 0.658446 
torque (ref. CG): -0.004447 (roll) -1755.418006 (pitch) -0.019375 (yaw) 
----------------------------------------------------- 
step 83, time 0.062250, maxvel 30.000000, total vol 183256, vol(u>maxvel) 6.73248, cell count 1592527
bounding box (containing cells with vel>maxvel): xmin -12.2958 -1.72282 -0.491551, xmax 0.871063 1.7228 3.94495m 
bounding box of vehicle: xmin -12.2 -1.30007 -6.07152e-18, xmax 2.41231e-18 1.30013 3.6m 
gts area: 163.391 
yplus max: 167.457, yplus min: 1.00086 
position of yplus max: -12.0258 -1.29323 0.0340221 
yplus prom: 22.1466 
forces: 2354.048759 0.005730 -828.623629 
Drag coefficient: 0.656932 
torque (ref. CG): -0.008022 (roll) -1758.935876 (pitch) -0.034953 (yaw) 
----------------------------------------------------- 
step 84, time 0.063000, maxvel 30.000000, total vol 183256, vol(u>maxvel) 6.70912, cell count 1582900
bounding box (containing cells with vel>maxvel): xmin -12.2958 -1.72282 -0.491651, xmax 0.871154 1.7228 3.94495m 
bounding box of vehicle: xmin -12.2 -1.30007 -6.07152e-18, xmax 2.41231e-18 1.30013 3.6m 
gts area: 163.391 
yplus max: 167.456, yplus min: 1.04033 
position of yplus max: -12.0258 -1.29323 0.0340221 
yplus prom: 22.1381 
forces: 2348.738398 0.003259 -827.957841 
Drag coefficient: 0.655450 
torque (ref. CG): -0.004563 (roll) -1762.309074 (pitch) -0.019880 (yaw) 
----------------------------------------------------- 
step 85, time 0.063750, maxvel 30.000000, total vol 183256, vol(u>maxvel) 6.6859, cell count 1573614
bounding box (containing cells with vel>maxvel): xmin -12.2958 -1.72282 -0.491651, xmax 0.901685 1.7228 3.944m 
bounding box of vehicle: xmin -12.2 -1.30007 -6.07152e-18, xmax 2.41231e-18 1.30013 3.6m 
gts area: 163.391 
yplus max: 167.455, yplus min: 1.03795 
position of yplus max: -12.0258 -1.29323 0.0340221 
yplus prom: 22.1296 
forces: 2343.544958 0.007606 -827.279012 
Drag coefficient: 0.654001 
torque (ref. CG): -0.010648 (roll) -1765.439032 (pitch) -0.046397 (yaw) 
----------------------------------------------------- 
step 86, time 0.064500, maxvel 30.000000, total vol 183256, vol(u>maxvel) 6.66627, cell count 1564658
bounding box (containing cells with vel>maxvel): xmin -12.2958 -1.72282 -0.491651, xmax 0.901942 1.7228 3.944m 
bounding box of vehicle: xmin -12.2 -1.30007 -6.07152e-18, xmax 2.41231e-18 1.30013 3.6m 
gts area: 163.391 
yplus max: 167.454, yplus min: 1.02262 
position of yplus max: -12.0258 -1.29323 0.0340221 
yplus prom: 22.1211 
forces: 2338.461140 0.001960 -826.594383 
Drag coefficient: 0.652582 
torque (ref. CG): -0.002744 (roll) -1768.380143 (pitch) -0.011955 (yaw) 
----------------------------------------------------- 
step 87, time 0.065250, maxvel 30.000000, total vol 183256, vol(u>maxvel) 6.64379, cell count 1556002
bounding box (containing cells with vel>maxvel): xmin -12.2958 -1.72282 -0.491651, xmax 0.902087 1.7228 3.93457m 
bounding box of vehicle: xmin -12.2 -1.30007 -6.07152e-18, xmax 2.41231e-18 1.30013 3.6m 
gts area: 163.391 
yplus max: 167.453, yplus min: 0.561061 
position of yplus max: -12.0258 -1.29323 0.0340221 
yplus prom: 22.1127 
forces: 2333.479173 0.003576 -825.896314 
Drag coefficient: 0.651192 
torque (ref. CG): -0.005007 (roll) -1771.096676 (pitch) -0.021816 (yaw) 
----------------------------------------------------- 
step 88, time 0.066000, maxvel 30.000000, total vol 183256, vol(u>maxvel) 6.62048, cell count 1547096
bounding box (containing cells with vel>maxvel): xmin -12.2958 -1.72282 -0.491651, xmax 0.902181 1.7228 3.93457m 
bounding box of vehicle: xmin -12.2 -1.30007 -6.07152e-18, xmax 2.41231e-18 1.30013 3.6m 
gts area: 163.391 
yplus max: 167.452, yplus min: 0.685568 
position of yplus max: -12.0258 -1.29323 0.0340221 
yplus prom: 22.1043 
forces: 2328.590089 0.004047 -825.198850 
Drag coefficient: 0.649827 
torque (ref. CG): -0.005666 (roll) -1773.686862 (pitch) -0.024687 (yaw) 
----------------------------------------------------- 
step 89, time 0.066750, maxvel 30.000000, total vol 183256, vol(u>maxvel) 6.59961, cell count 1538405
bounding box (containing cells with vel>maxvel): xmin -12.2958 -1.72281 -0.491738, xmax 0.932757 1.7228 3.93457m 
bounding box of vehicle: xmin -12.2 -1.30007 -6.07152e-18, xmax 2.41231e-18 1.30013 3.6m 
gts area: 163.391 
yplus max: 167.452, yplus min: 0.961115 
position of yplus max: -12.0258 -1.29323 0.0340221 
yplus prom: 22.096 
forces: 2323.798560 -0.035126 -824.526824 
Drag coefficient: 0.648490 
torque (ref. CG): 0.049176 (roll) -1776.295642 (pitch) 0.214267 (yaw) 
----------------------------------------------------- 
step 90, time 0.067500, maxvel 30.000000, total vol 183256, vol(u>maxvel) 6.57812, cell count 1529826
bounding box (containing cells with vel>maxvel): xmin -12.2958 -1.72281 -0.491738, xmax 0.933016 1.72279 3.93457m 
bounding box of vehicle: xmin -12.2 -1.30007 -6.07152e-18, xmax 2.41231e-18 1.30013 3.6m 
gts area: 163.391 
yplus max: 167.451, yplus min: 0.991289 
position of yplus max: -12.0258 -1.29323 0.0340221 
yplus prom: 22.0877 
forces: 2319.062870 0.011171 -823.745729 
Drag coefficient: 0.647169 
torque (ref. CG): -0.015639 (roll) -1778.160928 (pitch) -0.068141 (yaw) 
----------------------------------------------------- 
step 91, time 0.068250, maxvel 30.000000, total vol 183256, vol(u>maxvel) 6.55626, cell count 1521720
bounding box (containing cells with vel>maxvel): xmin -12.2958 -1.72281 -0.491738, xmax 0.933114 1.72279 3.93457m 
bounding box of vehicle: xmin -12.2 -1.30007 -6.07152e-18, xmax 2.41231e-18 1.30013 3.6m 
gts area: 163.391 
yplus max: 167.45, yplus min: 0.975176 
position of yplus max: -12.0258 -1.29323 0.0340221 
yplus prom: 22.0796 
forces: 2314.425386 0.015165 -823.047187 
Drag coefficient: 0.645874 
torque (ref. CG): -0.021231 (roll) -1780.392302 (pitch) -0.092506 (yaw) 
----------------------------------------------------- 
step 92, time 0.069000, maxvel 30.000000, total vol 183256, vol(u>maxvel) 6.53547, cell count 1513589
bounding box (containing cells with vel>maxvel): xmin -12.2958 -1.72281 -0.491738, xmax 0.933256 1.72279 3.93232m 
bounding box of vehicle: xmin -12.2 -1.30007 -6.07152e-18, xmax 2.41231e-18 1.30013 3.6m 
gts area: 163.391 
yplus max: 167.449, yplus min: 0.966375 
position of yplus max: -12.0258 -1.29323 0.0340221 
yplus prom: 22.0715 
forces: 2309.855071 0.005280 -822.318442 
Drag coefficient: 0.644599 
torque (ref. CG): -0.007393 (roll) -1782.345395 (pitch) -0.032211 (yaw) 
----------------------------------------------------- 
step 93, time 0.069750, maxvel 30.000000, total vol 183256, vol(u>maxvel) 6.51745, cell count 1505969
bounding box (containing cells with vel>maxvel): xmin -12.2958 -1.72281 -0.491814, xmax 0.963779 1.72279 3.93232m 
bounding box of vehicle: xmin -12.2 -1.30007 -6.07152e-18, xmax 2.41231e-18 1.30013 3.6m 
gts area: 163.391 
yplus max: 167.448, yplus min: 0.9654 
position of yplus max: -12.0258 -1.29323 0.0340221 
yplus prom: 22.0634 
forces: 2305.310482 0.008654 -821.564183 
Drag coefficient: 0.643331 
torque (ref. CG): -0.012115 (roll) -1784.106844 (pitch) -0.052788 (yaw) 
----------------------------------------------------- 
step 94, time 0.070500, maxvel 30.000000, total vol 183256, vol(u>maxvel) 6.4991, cell count 1498132
bounding box (containing cells with vel>maxvel): xmin -12.2958 -1.72281 -0.491814, xmax 0.964043 1.72279 3.93232m 
bounding box of vehicle: xmin -12.2 -1.30007 -6.07152e-18, xmax 2.41231e-18 1.30013 3.6m 
gts area: 163.391 
yplus max: 167.447, yplus min: 0.972657 
position of yplus max: -12.0258 -1.29323 0.0340221 
yplus prom: 22.0554 
forces: 2300.871727 0.005758 -820.807869 
Drag coefficient: 0.642092 
torque (ref. CG): -0.008062 (roll) -1785.707583 (pitch) -0.035126 (yaw) 
----------------------------------------------------- 
step 95, time 0.071250, maxvel 30.000000, total vol 183256, vol(u>maxvel) 6.48175, cell count 1490452
bounding box (containing cells with vel>maxvel): xmin -12.2958 -1.72281 -0.491814, xmax 0.964192 1.72279 3.93232m 
bounding box of vehicle: xmin -12.2 -1.30007 -6.07152e-18, xmax 2.41231e-18 1.30013 3.6m 
gts area: 163.391 
yplus max: 167.446, yplus min: 0.988362 
position of yplus max: -12.0258 -1.29323 0.0340221 
yplus prom: 22.0474 
forces: 2296.500201 0.011049 -820.044044 
Drag coefficient: 0.640872 
torque (ref. CG): -0.015469 (roll) -1787.168389 (pitch) -0.067400 (yaw) 
----------------------------------------------------- 
step 96, time 0.072000, maxvel 30.000000, total vol 183256, vol(u>maxvel) 6.46158, cell count 1482874
bounding box (containing cells with vel>maxvel): xmin -12.2958 -1.72281 -0.491814, xmax 0.964288 1.72279 3.93232m 
bounding box of vehicle: xmin -12.2 -1.30007 -6.07152e-18, xmax 2.41231e-18 1.30013 3.6m 
gts area: 163.391 
yplus max: 167.446, yplus min: 1.01248 
position of yplus max: -12.0258 -1.29323 0.0340221 
yplus prom: 22.0395 
forces: 2292.189090 0.008681 -819.255943 
Drag coefficient: 0.639669 
torque (ref. CG): -0.012153 (roll) -1788.396529 (pitch) -0.052952 (yaw) 
----------------------------------------------------- 
step 97, time 0.072750, maxvel 30.000000, total vol 183256, vol(u>maxvel) 6.44281, cell count 1475275
bounding box (containing cells with vel>maxvel): xmin -12.2958 -1.72281 -0.491814, xmax 0.994805 1.72279 3.93232m 
bounding box of vehicle: xmin -12.2 -1.30007 -6.07152e-18, xmax 2.41231e-18 1.30013 3.6m 
gts area: 163.391 
yplus max: 167.445, yplus min: 1.01137 
position of yplus max: -12.0258 -1.29323 0.0340221 
yplus prom: 22.0316 
forces: 2287.934393 0.012019 -818.472774 
Drag coefficient: 0.638482 
torque (ref. CG): -0.016827 (roll) -1789.575773 (pitch) -0.073318 (yaw) 
----------------------------------------------------- 
step 98, time 0.073500, maxvel 30.000000, total vol 183256, vol(u>maxvel) 6.42766, cell count 1468098
bounding box (containing cells with vel>maxvel): xmin -12.2958 -1.72281 -0.491814, xmax 0.995072 1.72279 3.93232m 
bounding box of vehicle: xmin -12.2 -1.30007 -6.07152e-18, xmax 2.41231e-18 1.30013 3.6m 
gts area: 163.391 
yplus max: 167.444, yplus min: 1.00928 
position of yplus max: -12.0258 -1.29323 0.0340221 
yplus prom: 22.0239 
forces: 2283.739503 0.011371 -817.666027 
Drag coefficient: 0.637311 
torque (ref. CG): -0.015919 (roll) -1790.527463 (pitch) -0.069361 (yaw) 
----------------------------------------------------- 
step 99, time 0.074250, maxvel 30.000000, total vol 183256, vol(u>maxvel) 6.412, cell count 1461017
bounding box (containing cells with vel>maxvel): xmin -12.2958 -1.72281 -0.491881, xmax 0.995224 1.72279 3.92942m 
bounding box of vehicle: xmin -12.2 -1.30007 -6.07152e-18, xmax 2.41231e-18 1.30013 3.6m 
gts area: 163.391 
yplus max: 167.443, yplus min: 1.00721 
position of yplus max: -12.0258 -1.29323 0.0340221 
yplus prom: 22.0162 
forces: 2279.594471 0.010548 -816.843028 
Drag coefficient: 0.636154 
torque (ref. CG): -0.014767 (roll) -1791.310210 (pitch) -0.064344 (yaw) 
----------------------------------------------------- 
step 100, time 0.075000, maxvel 30.000000, total vol 183256, vol(u>maxvel) 6.3933, cell count 1453648
bounding box (containing cells with vel>maxvel): xmin -12.2958 -1.72281 -0.491881, xmax 0.995322 1.72279 3.92942m 
bounding box of vehicle: xmin -12.2 -1.30007 -6.07152e-18, xmax 2.41231e-18 1.30013 3.6m 
gts area: 163.391 
yplus max: 167.442, yplus min: 1.00515 
position of yplus max: -12.0258 -1.29323 0.0340221 
yplus prom: 22.0085 
forces: 2275.499114 0.012251 -816.021534 
Drag coefficient: 0.635011 
torque (ref. CG): -0.017152 (roll) -1792.032597 (pitch) -0.074733 (yaw) 
----------------------------------------------------- 
step 101, time 0.075750, maxvel 30.000000, total vol 183256, vol(u>maxvel) 6.37296, cell count 1446628
bounding box (containing cells with vel>maxvel): xmin -12.2958 -1.72281 -0.491881, xmax 0.99537 1.72279 3.92942m 
bounding box of vehicle: xmin -12.2 -1.30007 -6.07152e-18, xmax 2.41231e-18 1.30013 3.6m 
gts area: 163.391 
yplus max: 167.441, yplus min: 1.00309 
position of yplus max: -12.0258 -1.29323 0.0340221 
yplus prom: 22.0008 
forces: 2271.452895 0.012822 -815.180131 
Drag coefficient: 0.633882 
torque (ref. CG): -0.017951 (roll) -1792.564748 (pitch) -0.078216 (yaw) 
----------------------------------------------------- 
step 102, time 0.076500, maxvel 30.000000, total vol 183256, vol(u>maxvel) 6.35549, cell count 1439797
bounding box (containing cells with vel>maxvel): xmin -12.2958 -1.72281 -0.491881, xmax 1.02605 1.72279 3.92942m 
bounding box of vehicle: xmin -12.2 -1.30007 -6.07152e-18, xmax 2.41231e-18 1.30013 3.6m 
gts area: 163.391 
yplus max: 167.44, yplus min: 1.00105 
position of yplus max: -12.0258 -1.29323 0.0340221 
yplus prom: 21.9932 
forces: 2267.454882 0.014977 -814.321233 
Drag coefficient: 0.632767 
torque (ref. CG): -0.020968 (roll) -1792.922687 (pitch) -0.091359 (yaw) 
----------------------------------------------------- 
step 103, time 0.077250, maxvel 30.000000, total vol 183256, vol(u>maxvel) 6.33564, cell count 1432970
bounding box (containing cells with vel>maxvel): xmin -12.2958 -1.72281 -0.491881, xmax 1.02621 1.72279 3.92847m 
bounding box of vehicle: xmin -12.2 -1.30007 -6.07152e-18, xmax 2.41231e-18 1.30013 3.6m 
gts area: 163.391 
yplus max: 167.44, yplus min: 0.999024 
position of yplus max: -12.0258 -1.29323 0.0340221 
yplus prom: 21.9857 
forces: 2263.508621 0.013159 -813.433779 
Drag coefficient: 0.631665 
torque (ref. CG): -0.018423 (roll) -1793.033980 (pitch) -0.080270 (yaw) 
----------------------------------------------------- 
step 104, time 0.078000, maxvel 30.000000, total vol 183256, vol(u>maxvel) 6.31736, cell count 1426131
bounding box (containing cells with vel>maxvel): xmin -12.2958 -1.72281 -0.491939, xmax 1.02631 1.72279 3.92847m 
bounding box of vehicle: xmin -12.2 -1.30007 -6.07152e-18, xmax 2.41231e-18 1.30013 3.6m 
gts area: 163.391 
yplus max: 167.439, yplus min: 0.997003 
position of yplus max: -12.0258 -1.29323 0.0340221 
yplus prom: 21.9782 
forces: 2259.608165 0.013446 -812.531716 
Drag coefficient: 0.630577 
torque (ref. CG): -0.018824 (roll) -1792.992034 (pitch) -0.082021 (yaw) 
----------------------------------------------------- 
step 105, time 0.078750, maxvel 30.000000, total vol 183256, vol(u>maxvel) 6.30009, cell count 1419975
bounding box (containing cells with vel>maxvel): xmin -12.2958 -1.72281 -0.491939, xmax 1.02641 1.72279 3.92838m 
bounding box of vehicle: xmin -12.2 -1.30007 -6.07152e-18, xmax 2.41231e-18 1.30013 3.6m 
gts area: 163.391 
yplus max: 167.438, yplus min: 0.994991 
position of yplus max: -12.0258 -1.29323 0.0340221 
yplus prom: 21.9707 
forces: 2255.751333 0.012753 -811.611818 
Drag coefficient: 0.629501 
torque (ref. CG): -0.017854 (roll) -1792.780223 (pitch) -0.077794 (yaw) 
----------------------------------------------------- 
step 106, time 0.079500, maxvel 30.000000, total vol 183256, vol(u>maxvel) 6.28119, cell count 1413482
bounding box (containing cells with vel>maxvel): xmin -12.2958 -1.72281 -0.491939, xmax 1.05703 1.72279 3.91907m 
bounding box of vehicle: xmin -12.2 -1.30007 -6.07152e-18, xmax 2.41231e-18 1.30013 3.6m 
gts area: 163.391 
yplus max: 167.437, yplus min: 0.992987 
position of yplus max: -12.0258 -1.29323 0.0340221 
yplus prom: 21.9633 
forces: 2251.937792 0.012387 -810.674684 
Drag coefficient: 0.628436 
torque (ref. CG): -0.017342 (roll) -1792.402660 (pitch) -0.075563 (yaw) 
----------------------------------------------------- 
step 107, time 0.080250, maxvel 30.000000, total vol 183256, vol(u>maxvel) 6.26736, cell count 1407597
bounding box (containing cells with vel>maxvel): xmin -12.2958 -1.72281 -0.491939, xmax 1.05724 1.72279 3.91907m 
bounding box of vehicle: xmin -12.2 -1.30007 -6.07152e-18, xmax 2.41231e-18 1.30013 3.6m 
gts area: 163.391 
yplus max: 167.436, yplus min: 0.990989 
position of yplus max: -12.0258 -1.29323 0.0340221 
yplus prom: 21.9559 
forces: 2248.162012 0.012568 -809.717035 
Drag coefficient: 0.627383 
torque (ref. CG): -0.017595 (roll) -1791.847099 (pitch) -0.076663 (yaw) 
----------------------------------------------------- 
step 108, time 0.081000, maxvel 30.000000, total vol 183256, vol(u>maxvel) 6.2499, cell count 1401273
bounding box (containing cells with vel>maxvel): xmin -12.2958 -1.72281 -0.491939, xmax 1.05735 1.72279 3.91681m 
bounding box of vehicle: xmin -12.2 -1.30007 -6.07152e-18, xmax 2.41231e-18 1.30013 3.6m 
gts area: 163.391 
yplus max: 167.435, yplus min: 0.988998 
position of yplus max: -12.0258 -1.29323 0.0340221 
yplus prom: 21.9486 
forces: 2244.427659 0.012547 -808.731975 
Drag coefficient: 0.626341 
torque (ref. CG): -0.017565 (roll) -1791.066326 (pitch) -0.076534 (yaw) 
----------------------------------------------------- 
step 109, time 0.081750, maxvel 30.000000, total vol 183256, vol(u>maxvel) 6.23341, cell count 1395591
bounding box (containing cells with vel>maxvel): xmin -12.2958 -1.72281 -0.491939, xmax 1.05745 1.72279 3.91681m 
bounding box of vehicle: xmin -12.2 -1.30007 -6.07152e-18, xmax 2.41231e-18 1.30013 3.6m 
gts area: 163.391 
yplus max: 167.434, yplus min: 0.987012 
position of yplus max: -12.0258 -1.29323 0.0340221 
yplus prom: 21.9413 
forces: 2240.729463 0.011768 -807.731056 
Drag coefficient: 0.625308 
torque (ref. CG): -0.016475 (roll) -1790.138194 (pitch) -0.071783 (yaw) 
----------------------------------------------------- 
step 110, time 0.082500, maxvel 30.000000, total vol 183256, vol(u>maxvel) 6.21715, cell count 1389733
bounding box (containing cells with vel>maxvel): xmin -12.2958 -1.72281 -0.491939, xmax 1.08799 1.72279 3.91681m 
bounding box of vehicle: xmin -12.2 -1.30007 -6.07152e-18, xmax 2.41231e-18 1.30013 3.6m 
gts area: 163.391 
yplus max: 167.433, yplus min: 0.98503 
position of yplus max: -12.0258 -1.29323 0.0340221 
yplus prom: 21.934 
forces: 2237.070592 0.012210 -806.691285 
Drag coefficient: 0.624287 
torque (ref. CG): -0.017094 (roll) -1788.918011 (pitch) -0.074480 (yaw) 
----------------------------------------------------- 
step 111, time 0.083250, maxvel 30.000000, total vol 183256, vol(u>maxvel) 6.20324, cell count 1384226
bounding box (containing cells with vel>maxvel): xmin -12.2958 -1.72281 -0.49199, xmax 1.08826 1.72279 3.91681m 
bounding box of vehicle: xmin -12.2 -1.30007 -6.07152e-18, xmax 2.41231e-18 1.30013 3.6m 
gts area: 163.391 
yplus max: 167.432, yplus min: 0.983053 
position of yplus max: -12.0258 -1.29323 0.0340221 
yplus prom: 21.9268 
forces: 2233.446611 0.011144 -805.650175 
Drag coefficient: 0.623276 
torque (ref. CG): -0.015601 (roll) -1787.640814 (pitch) -0.067978 (yaw) 
----------------------------------------------------- 
step 112, time 0.084000, maxvel 30.000000, total vol 183256, vol(u>maxvel) 6.18594, cell count 1378484
bounding box (containing cells with vel>maxvel): xmin -12.2958 -1.72281 -0.49199, xmax 1.08836 1.72279 3.91681m 
bounding box of vehicle: xmin -12.2 -1.30007 -6.07152e-18, xmax 2.41231e-18 1.30013 3.6m 
gts area: 163.391 
yplus max: 167.431, yplus min: 0.981078 
position of yplus max: -12.0258 -1.29323 0.0340221 
yplus prom: 21.9196 
forces: 2229.864481 0.012413 -804.579671 
Drag coefficient: 0.622276 
torque (ref. CG): -0.017378 (roll) -1786.125718 (pitch) -0.075719 (yaw) 
----------------------------------------------------- 
step 113, time 0.084750, maxvel 30.000000, total vol 183256, vol(u>maxvel) 6.17172, cell count 1373160
bounding box (containing cells with vel>maxvel): xmin -12.2958 -1.72281 -0.49199, xmax 1.08846 1.72279 3.91681m 
bounding box of vehicle: xmin -12.2 -1.30007 -6.07152e-18, xmax 2.41231e-18 1.30013 3.6m 
gts area: 163.391 
yplus max: 167.43, yplus min: 0.883041 
position of yplus max: -12.0258 -1.29323 0.0340221 
yplus prom: 21.9124 
forces: 2226.315616 0.011533 -803.472639 
Drag coefficient: 0.621286 
torque (ref. CG): -0.016147 (roll) -1784.341235 (pitch) -0.070353 (yaw) 
----------------------------------------------------- 
step 114, time 0.085500, maxvel 30.000000, total vol 183256, vol(u>maxvel) 6.15734, cell count 1367914
bounding box (containing cells with vel>maxvel): xmin -12.2958 -1.72281 -0.49199, xmax 1.08854 1.72279 3.91681m 
bounding box of vehicle: xmin -12.2 -1.30007 -6.07152e-18, xmax 2.41231e-18 1.30013 3.6m 
gts area: 163.391 
yplus max: 167.429, yplus min: 0.977137 
position of yplus max: -12.0258 -1.29323 0.0340221 
yplus prom: 21.9053 
forces: 2222.796458 0.011777 -802.335093 
Drag coefficient: 0.620304 
torque (ref. CG): -0.016487 (roll) -1782.329025 (pitch) -0.071838 (yaw) 
----------------------------------------------------- 
step 115, time 0.086250, maxvel 30.000000, total vol 183256, vol(u>maxvel) 6.14099, cell count 1362390
bounding box (containing cells with vel>maxvel): xmin -12.2958 -1.72281 -0.49199, xmax 1.11925 1.72279 3.9139m 
bounding box of vehicle: xmin -12.2 -1.30007 -6.07152e-18, xmax 2.41231e-18 1.30013 3.6m 
gts area: 163.391 
yplus max: 167.428, yplus min: 0.975168 
position of yplus max: -12.0258 -1.29323 0.0340221 
yplus prom: 21.8982 
forces: 2219.298218 0.011418 -801.172696 
Drag coefficient: 0.619328 
torque (ref. CG): -0.015985 (roll) -1780.135939 (pitch) -0.069647 (yaw) 
----------------------------------------------------- 
step 116, time 0.087000, maxvel 30.000000, total vol 183256, vol(u>maxvel) 6.12957, cell count 1357438
bounding box (containing cells with vel>maxvel): xmin -12.2958 -1.72281 -0.49199, xmax 1.1194 1.72279 3.9139m 
bounding box of vehicle: xmin -12.2 -1.30007 -6.07152e-18, xmax 2.41231e-18 1.30013 3.6m 
gts area: 163.391 
yplus max: 167.427, yplus min: 0.973201 
position of yplus max: -12.0258 -1.29323 0.0340221 
yplus prom: 21.8912 
forces: 2215.817381 0.011115 -799.986291 
Drag coefficient: 0.618356 
torque (ref. CG): -0.015560 (roll) -1777.772043 (pitch) -0.067799 (yaw) 
----------------------------------------------------- 
step 117, time 0.087750, maxvel 30.000000, total vol 183256, vol(u>maxvel) 6.11519, cell count 1352457
bounding box (containing cells with vel>maxvel): xmin -12.2958 -1.72281 -0.49199, xmax 1.11951 1.72279 3.9139m 
bounding box of vehicle: xmin -12.2 -1.30007 -6.07152e-18, xmax 2.41231e-18 1.30013 3.6m 
gts area: 163.391 
yplus max: 167.426, yplus min: 0.971233 
position of yplus max: -12.0258 -1.29323 0.0340221 
yplus prom: 21.8841 
forces: 2212.355342 0.011717 -798.772088 
Drag coefficient: 0.617390 
torque (ref. CG): -0.016404 (roll) -1775.212260 (pitch) -0.071473 (yaw) 
----------------------------------------------------- 
step 118, time 0.088500, maxvel 30.000000, total vol 183256, vol(u>maxvel) 6.10097, cell count 1347661
bounding box (containing cells with vel>maxvel): xmin -12.2958 -1.72281 -0.492035, xmax 1.11956 1.72279 3.9139m 
bounding box of vehicle: xmin -12.2 -1.30007 -6.07152e-18, xmax 2.41231e-18 1.30013 3.6m 
gts area: 163.391 
yplus max: 167.425, yplus min: 0.969265 
position of yplus max: -12.0258 -1.29323 0.0340221 
yplus prom: 21.8771 
forces: 2208.917124 0.011297 -797.521548 
Drag coefficient: 0.616431 
torque (ref. CG): -0.015815 (roll) -1772.397467 (pitch) -0.068910 (yaw) 
----------------------------------------------------- 
step 119, time 0.089250, maxvel 30.000000, total vol 183256, vol(u>maxvel) 6.08306, cell count 1342764
bounding box (containing cells with vel>maxvel): xmin -12.2958 -1.72281 -0.492035, xmax 1.15018 1.72279 3.91295m 
bounding box of vehicle: xmin -12.2 -1.30007 -6.07152e-18, xmax 2.41231e-18 1.30013 3.6m 
gts area: 163.391 
yplus max: 167.423, yplus min: 0.967297 
position of yplus max: -12.0258 -1.29323 0.0340221 
yplus prom: 21.8701 
forces: 2205.494934 0.011407 -796.253055 
Drag coefficient: 0.615476 
torque (ref. CG): -0.015970 (roll) -1769.450730 (pitch) -0.069583 (yaw) 
----------------------------------------------------- 
step 120, time 0.090000, maxvel 30.000000, total vol 183256, vol(u>maxvel) 6.07158, cell count 1338295
bounding box (containing cells with vel>maxvel): xmin -12.2958 -1.72281 -0.492035, xmax 1.1504 1.72279 3.91295m 
bounding box of vehicle: xmin -12.2 -1.30007 -6.07152e-18, xmax 2.41231e-18 1.30013 3.6m 
gts area: 163.391 
yplus max: 167.422, yplus min: 0.911591 
position of yplus max: -12.0258 -1.29323 0.0340221 
yplus prom: 21.8631 
forces: 2202.085650 0.011519 -794.936631 
Drag coefficient: 0.614524 
torque (ref. CG): -0.016126 (roll) -1766.193540 (pitch) -0.070264 (yaw) 
----------------------------------------------------- 
step 121, time 0.090750, maxvel 30.000000, total vol 183256, vol(u>maxvel) 6.05587, cell count 1333634
bounding box (containing cells with vel>maxvel): xmin -12.2958 -1.72281 -0.492035, xmax 1.1505 1.72279 3.91285m 
bounding box of vehicle: xmin -12.2 -1.30007 -6.07152e-18, xmax 2.41231e-18 1.30013 3.6m 
gts area: 163.391 
yplus max: 167.421, yplus min: 0.963355 
position of yplus max: -12.0258 -1.29323 0.0340221 
yplus prom: 21.8562 
forces: 2198.684875 0.011372 -793.600771 
Drag coefficient: 0.613575 
torque (ref. CG): -0.015921 (roll) -1762.805879 (pitch) -0.069370 (yaw) 
----------------------------------------------------- 
step 122, time 0.091500, maxvel 30.000000, total vol 183256, vol(u>maxvel) 6.04391, cell count 1329381
bounding box (containing cells with vel>maxvel): xmin -12.2958 -1.72281 -0.492035, xmax 1.1506 1.72279 3.91284m 
bounding box of vehicle: xmin -12.2 -1.30007 -6.07152e-18, xmax 2.41231e-18 1.30013 3.6m 
gts area: 163.391 
yplus max: 167.42, yplus min: 0.961381 
position of yplus max: -12.0258 -1.29323 0.0340221 
yplus prom: 21.8493 
forces: 2195.295064 0.010805 -792.223940 
Drag coefficient: 0.612629 
torque (ref. CG): -0.015127 (roll) -1759.152946 (pitch) -0.065912 (yaw) 
----------------------------------------------------- 
step 123, time 0.092250, maxvel 30.000000, total vol 183256, vol(u>maxvel) 6.02678, cell count 1324854
bounding box (containing cells with vel>maxvel): xmin -12.2958 -1.72281 -0.492035, xmax 1.15065 1.72279 3.90131m 
bounding box of vehicle: xmin -12.2 -1.30007 -6.07152e-18, xmax 2.41231e-18 1.30013 3.6m 
gts area: 163.391 
yplus max: 167.418, yplus min: 0.959404 
position of yplus max: -12.0258 -1.29323 0.0340221 
yplus prom: 21.8424 
forces: 2191.912167 0.011335 -790.823665 
Drag coefficient: 0.611685 
torque (ref. CG): -0.015869 (roll) -1755.347323 (pitch) -0.069146 (yaw) 
----------------------------------------------------- 
step 124, time 0.093000, maxvel 30.000000, total vol 183256, vol(u>maxvel) 6.01012, cell count 1320708
bounding box (containing cells with vel>maxvel): xmin -12.2958 -1.72281 -0.492035, xmax 1.18139 1.72279 3.90131m 
bounding box of vehicle: xmin -12.2 -1.30007 -6.07152e-18, xmax 2.41231e-18 1.30013 3.6m 
[...]
bounding box of vehicle: xmin -12.2 -1.30007 -6.07152e-18, xmax 2.41231e-18 1.30013 3.6m 
gts area: 163.391 
yplus max: 167.313, yplus min: 0.746581 
position of yplus max: -12.0258 -1.29323 0.0340221 
yplus prom: 21.2203 
forces: 1764.643933 0.012796 -641.334644 
Drag coefficient: 0.492450 
torque (ref. CG): -0.017915 (roll) -1441.639821 (pitch) -0.078058 (yaw) 
----------------------------------------------------- 
step 224, time 0.168000, maxvel 30.000000, total vol 183256, vol(u>maxvel) 4.88554, cell count 974935
bounding box (containing cells with vel>maxvel): xmin -12.2958 -1.72277 -0.492142, xmax 1.74181 1.72275 3.86582m 
bounding box of vehicle: xmin -12.2 -1.30007 -6.07152e-18, xmax 2.41231e-18 1.30013 3.6m 
gts area: 163.391 
yplus max: 167.312, yplus min: 0.744969 
position of yplus max: -12.0258 -1.29323 0.0340221 
yplus prom: 21.2149 
forces: 1760.314007 0.011815 -640.296950 
Drag coefficient: 0.491241 
torque (ref. CG): -0.016541 (roll) -1441.371787 (pitch) -0.072071 (yaw) 
----------------------------------------------------- 
step 225, time 0.168750, maxvel 30.000000, total vol 183256, vol(u>maxvel) 4.87486, cell count 972108
bounding box (containing cells with vel>maxvel): xmin -12.2958 -1.72277 -0.492142, xmax 1.7419 1.72275 3.86582m 
bounding box of vehicle: xmin -12.2 -1.30007 -6.07152e-18, xmax 2.41231e-18 1.30013 3.6m 
gts area: 163.391 
yplus max: 167.311, yplus min: 0.743395 
position of yplus max: -12.0258 -1.29323 0.0340221 
yplus prom: 21.2095 
forces: 1755.981389 0.012043 -639.258867 
Drag coefficient: 0.490032 
torque (ref. CG): -0.016860 (roll) -1441.105147 (pitch) -0.073463 (yaw) 
----------------------------------------------------- 
step 226, time 0.169500, maxvel 30.000000, total vol 183256, vol(u>maxvel) 4.86006, cell count 969223
bounding box (containing cells with vel>maxvel): xmin -12.2958 -1.72277 -0.492142, xmax 1.77272 1.72275 3.86582m 
bounding box of vehicle: xmin -12.2 -1.30007 -6.07152e-18, xmax 2.41231e-18 1.30013 3.6m 
gts area: 163.391 
yplus max: 167.311, yplus min: 0.74186 
position of yplus max: -12.0258 -1.29323 0.0340221 
yplus prom: 21.2042 
forces: 1751.698799 0.012413 -638.252703 
Drag coefficient: 0.488837 
torque (ref. CG): -0.017379 (roll) -1440.963171 (pitch) -0.075722 (yaw) 
----------------------------------------------------- 
step 227, time 0.170250, maxvel 30.000000, total vol 183256, vol(u>maxvel) 4.84714, cell count 966415
bounding box (containing cells with vel>maxvel): xmin -12.2958 -1.72277 -0.492142, xmax 1.77281 1.72275 3.86582m 
bounding box of vehicle: xmin -12.2 -1.30007 -6.07152e-18, xmax 2.41231e-18 1.30013 3.6m 
gts area: 163.391 
yplus max: 167.31, yplus min: 0.740366 
position of yplus max: -12.0258 -1.29323 0.0340221 
yplus prom: 21.1988 
forces: 1747.432642 0.012295 -637.255471 
Drag coefficient: 0.487647 
torque (ref. CG): -0.017212 (roll) -1440.852675 (pitch) -0.074997 (yaw) 
----------------------------------------------------- 
step 228, time 0.171000, maxvel 30.000000, total vol 183256, vol(u>maxvel) 4.83086, cell count 963438
bounding box (containing cells with vel>maxvel): xmin -12.2958 -1.72277 -0.492142, xmax 1.7729 1.72275 3.86582m 
bounding box of vehicle: xmin -12.2 -1.30007 -6.07152e-18, xmax 2.41231e-18 1.30013 3.6m 
gts area: 163.391 
yplus max: 167.309, yplus min: 0.738914 
position of yplus max: -12.0258 -1.29323 0.0340221 
yplus prom: 21.1936 
forces: 1743.200981 0.011374 -636.280669 
Drag coefficient: 0.486466 
torque (ref. CG): -0.015923 (roll) -1440.830709 (pitch) -0.069381 (yaw) 
----------------------------------------------------- 
step 229, time 0.171750, maxvel 30.000000, total vol 183256, vol(u>maxvel) 4.81872, cell count 960583
bounding box (containing cells with vel>maxvel): xmin -12.2958 -1.72277 -0.492142, xmax 1.77295 1.72275 3.8885m 
bounding box of vehicle: xmin -12.2 -1.30007 -6.07152e-18, xmax 2.41231e-18 1.30013 3.6m 
gts area: 163.391 
yplus max: 167.309, yplus min: 0.737504 
position of yplus max: -12.0258 -1.29323 0.0340221 
yplus prom: 21.1883 
forces: 1738.968456 0.012606 -635.303359 
Drag coefficient: 0.485285 
torque (ref. CG): -0.017648 (roll) -1440.794651 (pitch) -0.076896 (yaw) 
----------------------------------------------------- 
step 230, time 0.172500, maxvel 30.000000, total vol 183256, vol(u>maxvel) 4.80884, cell count 958020
bounding box (containing cells with vel>maxvel): xmin -12.2958 -1.72277 -0.492142, xmax 1.773 1.72275 3.88858m 
bounding box of vehicle: xmin -12.2 -1.30007 -6.07152e-18, xmax 2.41231e-18 1.30013 3.6m 
gts area: 163.391 
yplus max: 167.308, yplus min: 0.736139 
position of yplus max: -12.0258 -1.29323 0.0340221 
yplus prom: 21.1831 
forces: 1734.788963 0.011796 -634.364725 
Drag coefficient: 0.484118 
torque (ref. CG): -0.016514 (roll) -1440.920274 (pitch) -0.071954 (yaw) 
----------------------------------------------------- 
step 231, time 0.173250, maxvel 30.000000, total vol 183256, vol(u>maxvel) 4.79733, cell count 955375
bounding box (containing cells with vel>maxvel): xmin -12.2958 -1.72277 -0.492142, xmax 1.77305 1.72275 3.88866m 
bounding box of vehicle: xmin -12.2 -1.30007 -6.07152e-18, xmax 2.41231e-18 1.30013 3.6m 
gts area: 163.391 
yplus max: 167.307, yplus min: 0.734818 
position of yplus max: -12.0258 -1.29323 0.0340221 
yplus prom: 21.1779 
forces: 1730.637108 0.011812 -633.438451 
Drag coefficient: 0.482960 
torque (ref. CG): -0.016536 (roll) -1441.082599 (pitch) -0.072050 (yaw) 
----------------------------------------------------- 
step 232, time 0.174000, maxvel 30.000000, total vol 183256, vol(u>maxvel) 4.78411, cell count 952630
bounding box (containing cells with vel>maxvel): xmin -12.2958 -1.72277 -0.492142, xmax 1.80392 1.72275 3.88866m 
bounding box of vehicle: xmin -12.2 -1.30007 -6.07152e-18, xmax 2.41231e-18 1.30013 3.6m 
gts area: 163.391 
yplus max: 167.307, yplus min: 0.733543 
position of yplus max: -12.0258 -1.29323 0.0340221 
yplus prom: 21.1727 
forces: 1726.486286 0.012406 -632.511893 
Drag coefficient: 0.481801 
torque (ref. CG): -0.017369 (roll) -1441.241747 (pitch) -0.075680 (yaw) 
----------------------------------------------------- 
step 233, time 0.174750, maxvel 30.000000, total vol 183256, vol(u>maxvel) 4.77074, cell count 950003
bounding box (containing cells with vel>maxvel): xmin -12.2958 -1.72277 -0.492142, xmax 1.80401 1.72275 3.88874m 
bounding box of vehicle: xmin -12.2 -1.30007 -6.07152e-18, xmax 2.41231e-18 1.30013 3.6m 
gts area: 163.391 
yplus max: 167.306, yplus min: 0.732316 
position of yplus max: -12.0258 -1.29323 0.0340221 
yplus prom: 21.1675 
forces: 1722.389893 0.012300 -631.621814 
Drag coefficient: 0.480658 
torque (ref. CG): -0.017220 (roll) -1441.547216 (pitch) -0.075032 (yaw) 
----------------------------------------------------- 
step 234, time 0.175500, maxvel 30.000000, total vol 183256, vol(u>maxvel) 4.75901, cell count 947295
bounding box (containing cells with vel>maxvel): xmin -12.2958 -1.72277 -0.492142, xmax 1.8041 1.72275 3.88874m 
bounding box of vehicle: xmin -12.2 -1.30007 -6.07152e-18, xmax 2.41231e-18 1.30013 3.6m 
gts area: 163.391 
yplus max: 167.305, yplus min: 0.731136 
position of yplus max: -12.0258 -1.29323 0.0340221 
yplus prom: 21.1624 
forces: 1718.243357 0.015237 -630.693900 
Drag coefficient: 0.479501 
torque (ref. CG): -0.021332 (roll) -1441.692091 (pitch) -0.092947 (yaw) 
----------------------------------------------------- 
step 235, time 0.176250, maxvel 30.000000, total vol 183256, vol(u>maxvel) 4.74758, cell count 944721
bounding box (containing cells with vel>maxvel): xmin -12.2958 -1.72277 -0.492142, xmax 1.80414 1.72275 3.88882m 
bounding box of vehicle: xmin -12.2 -1.30007 -6.07152e-18, xmax 2.41231e-18 1.30013 3.6m 
gts area: 163.391 
yplus max: 167.305, yplus min: 0.730007 
position of yplus max: -12.0258 -1.29323 0.0340221 
yplus prom: 21.1573 
forces: 1714.262152 0.015549 -629.889153 
Drag coefficient: 0.478390 
torque (ref. CG): -0.021769 (roll) -1442.356819 (pitch) -0.094851 (yaw) 
----------------------------------------------------- 
step 236, time 0.177000, maxvel 30.000000, total vol 183256, vol(u>maxvel) 4.73268, cell count 942070
bounding box (containing cells with vel>maxvel): xmin -12.2958 -1.72277 -0.492142, xmax 1.80419 1.72275 3.88882m 
bounding box of vehicle: xmin -12.2 -1.30007 -6.07152e-18, xmax 2.41231e-18 1.30013 3.6m 
gts area: 163.391 
yplus max: 167.304, yplus min: 0.728927 
position of yplus max: -12.0258 -1.29323 0.0340221 
yplus prom: 21.1523 
forces: 1710.251973 0.012112 -629.040387 
Drag coefficient: 0.477271 
torque (ref. CG): -0.016956 (roll) -1442.793597 (pitch) -0.073882 (yaw) 
----------------------------------------------------- 
step 237, time 0.177750, maxvel 30.000000, total vol 183256, vol(u>maxvel) 4.72126, cell count 939574
bounding box (containing cells with vel>maxvel): xmin -12.2958 -1.72277 -0.492142, xmax 1.83493 1.72275 3.88882m 
bounding box of vehicle: xmin -12.2 -1.30007 -6.07152e-18, xmax 2.41231e-18 1.30013 3.6m 
gts area: 163.391 
yplus max: 167.303, yplus min: 0.727898 
position of yplus max: -12.0258 -1.29323 0.0340221 
yplus prom: 21.1473 
forces: 1706.264931 0.011168 -628.210385 
Drag coefficient: 0.476158 
torque (ref. CG): -0.015636 (roll) -1443.312445 (pitch) -0.068127 (yaw) 
----------------------------------------------------- 
step 238, time 0.178500, maxvel 30.000000, total vol 183256, vol(u>maxvel) 4.71277, cell count 937123
bounding box (containing cells with vel>maxvel): xmin -12.2958 -1.72277 -0.492142, xmax 1.83511 1.72275 3.88882m 
bounding box of vehicle: xmin -12.2 -1.30007 -6.07152e-18, xmax 2.41231e-18 1.30013 3.6m 
gts area: 163.391 
yplus max: 167.303, yplus min: 0.726922 
position of yplus max: -12.0258 -1.29323 0.0340221 
yplus prom: 21.1423 
forces: 1702.308410 0.012227 -627.400224 
Drag coefficient: 0.475054 
torque (ref. CG): -0.017118 (roll) -1443.909595 (pitch) -0.074584 (yaw) 
----------------------------------------------------- 
step 239, time 0.179250, maxvel 30.000000, total vol 183256, vol(u>maxvel) 4.69978, cell count 934595
bounding box (containing cells with vel>maxvel): xmin -12.2958 -1.72277 -0.492142, xmax 1.8352 1.72275 3.88882m 
bounding box of vehicle: xmin -12.2 -1.30007 -6.07152e-18, xmax 2.41231e-18 1.30013 3.6m 
gts area: 163.391 
yplus max: 167.302, yplus min: 0.725998 
position of yplus max: -12.0258 -1.29323 0.0340221 
yplus prom: 21.1373 
forces: 1698.383118 0.009678 -626.611648 
Drag coefficient: 0.473959 
torque (ref. CG): -0.013549 (roll) -1444.594686 (pitch) -0.059034 (yaw) 
----------------------------------------------------- 
step 240, time 0.180000, maxvel 30.000000, total vol 183256, vol(u>maxvel) 4.68695, cell count 932163
bounding box (containing cells with vel>maxvel): xmin -12.2958 -1.72277 -0.492142, xmax 1.83529 1.72275 3.88882m 
bounding box of vehicle: xmin -12.2 -1.30007 -6.07152e-18, xmax 2.41231e-18 1.30013 3.6m 
gts area: 163.391 
yplus max: 167.301, yplus min: 0.725128 
position of yplus max: -12.0258 -1.29323 0.0340221 
yplus prom: 21.1323 
forces: 1694.489902 0.014259 -625.843772 
Drag coefficient: 0.472872 
torque (ref. CG): -0.019962 (roll) -1445.361143 (pitch) -0.086979 (yaw) 
----------------------------------------------------- 
step 241, time 0.180750, maxvel 30.000000, total vol 183256, vol(u>maxvel) 4.67382, cell count 929653
bounding box (containing cells with vel>maxvel): xmin -12.2958 -1.72277 -0.492142, xmax 1.83534 1.72275 3.88882m 
bounding box of vehicle: xmin -12.2 -1.30007 -6.07152e-18, xmax 2.41231e-18 1.30013 3.6m 
gts area: 163.391 
yplus max: 167.301, yplus min: 0.724313 
position of yplus max: -12.0258 -1.29323 0.0340221 
yplus prom: 21.1274 
forces: 1690.630644 0.012307 -625.089084 
Drag coefficient: 0.471795 
torque (ref. CG): -0.017229 (roll) -1446.160511 (pitch) -0.075070 (yaw) 
----------------------------------------------------- 
step 242, time 0.181500, maxvel 30.000000, total vol 183256, vol(u>maxvel) 4.66171, cell count 927360
bounding box (containing cells with vel>maxvel): xmin -12.2958 -1.72277 -0.492142, xmax 1.83534 1.72275 3.88882m 
bounding box of vehicle: xmin -12.2 -1.30007 -6.07152e-18, xmax 2.41231e-18 1.30013 3.6m 
gts area: 163.391 
yplus max: 167.3, yplus min: 0.453244 
position of yplus max: -12.0258 -1.29323 0.0340221 
yplus prom: 21.1225 
forces: 1686.803491 0.011578 -624.352637 
Drag coefficient: 0.470727 
torque (ref. CG): -0.016209 (roll) -1447.026198 (pitch) -0.070625 (yaw) 
----------------------------------------------------- 
step 243, time 0.182250, maxvel 30.000000, total vol 183256, vol(u>maxvel) 4.64804, cell count 924934
bounding box (containing cells with vel>maxvel): xmin -12.2958 -1.72277 -0.492142, xmax 1.86622 1.72275 3.88882m 
bounding box of vehicle: xmin -12.2 -1.30007 -6.07152e-18, xmax 2.41231e-18 1.30013 3.6m 
gts area: 163.391 
yplus max: 167.299, yplus min: 0.606225 
position of yplus max: -12.0258 -1.29323 0.0340221 
yplus prom: 21.1177 
forces: 1683.077189 0.009916 -623.679777 
Drag coefficient: 0.469687 
torque (ref. CG): -0.013883 (roll) -1448.138577 (pitch) -0.060490 (yaw) 
----------------------------------------------------- 
step 244, time 0.183000, maxvel 30.000000, total vol 183256, vol(u>maxvel) 4.63498, cell count 922547
bounding box (containing cells with vel>maxvel): xmin -12.2958 -1.72277 -0.492142, xmax 1.86631 1.72275 3.88882m 
bounding box of vehicle: xmin -12.2 -1.30007 -6.07152e-18, xmax 2.41231e-18 1.30013 3.6m 
gts area: 163.391 
yplus max: 167.299, yplus min: 0.722202 
position of yplus max: -12.0258 -1.29323 0.0340221 
yplus prom: 21.1129 
forces: 1679.188433 0.008510 -622.880100 
Drag coefficient: 0.468602 
torque (ref. CG): -0.011914 (roll) -1448.704803 (pitch) -0.051909 (yaw) 
----------------------------------------------------- 
step 245, time 0.183750, maxvel 30.000000, total vol 183256, vol(u>maxvel) 4.62264, cell count 920189
bounding box (containing cells with vel>maxvel): xmin -12.2958 -1.72277 -0.492142, xmax 1.8664 1.72275 3.88882m 
bounding box of vehicle: xmin -12.2 -1.30007 -6.07152e-18, xmax 2.41231e-18 1.30013 3.6m 
gts area: 163.391 
yplus max: 167.298, yplus min: 0.635919 
position of yplus max: -12.0258 -1.29323 0.0340221 
yplus prom: 21.1081 
forces: 1675.575076 0.016555 -622.298428 
Drag coefficient: 0.467594 
torque (ref. CG): -0.023177 (roll) -1450.215307 (pitch) -0.100984 (yaw) 
----------------------------------------------------- 
step 246, time 0.184500, maxvel 30.000000, total vol 183256, vol(u>maxvel) 4.6095, cell count 917868
bounding box (containing cells with vel>maxvel): xmin -12.2958 -1.72277 -0.492142, xmax 1.86645 1.72275 3.88882m 
bounding box of vehicle: xmin -12.2 -1.30007 -6.07152e-18, xmax 2.41231e-18 1.30013 3.6m 
gts area: 163.391 
yplus max: 167.297, yplus min: 0.72108 
position of yplus max: -12.0258 -1.29323 0.0340221 
yplus prom: 21.1034 
forces: 1671.827585 0.008473 -621.574003 
Drag coefficient: 0.466548 
torque (ref. CG): -0.011862 (roll) -1451.042801 (pitch) -0.051684 (yaw) 
----------------------------------------------------- 
step 247, time 0.185250, maxvel 30.000000, total vol 183256, vol(u>maxvel) 4.5973, cell count 915698
bounding box (containing cells with vel>maxvel): xmin -12.2958 -1.72277 -0.492142, xmax 1.86649 1.72275 3.89666m 
bounding box of vehicle: xmin -12.2 -1.30007 -6.07152e-18, xmax 2.41231e-18 1.30013 3.6m 
gts area: 163.391 
yplus max: 167.297, yplus min: 0.720607 
position of yplus max: -12.0258 -1.29323 0.0340221 
yplus prom: 21.0986 
forces: 1668.163915 0.012998 -620.930455 
Drag coefficient: 0.465526 
torque (ref. CG): -0.018198 (roll) -1452.246296 (pitch) -0.079290 (yaw) 
----------------------------------------------------- 
step 248, time 0.186000, maxvel 30.000000, total vol 183256, vol(u>maxvel) 4.58474, cell count 913400
bounding box (containing cells with vel>maxvel): xmin -12.2958 -1.72277 -0.492142, xmax 1.86653 1.72275 3.89666m 
bounding box of vehicle: xmin -12.2 -1.30007 -6.07152e-18, xmax 2.41231e-18 1.30013 3.6m 
gts area: 163.391 
yplus max: 167.296, yplus min: 0.720193 
position of yplus max: -12.0258 -1.29323 0.0340221 
yplus prom: 21.0939 
forces: 1664.538931 0.012246 -620.297579 
Drag coefficient: 0.464514 
torque (ref. CG): -0.017144 (roll) -1453.460726 (pitch) -0.074700 (yaw) 
----------------------------------------------------- 
step 249, time 0.186750, maxvel 30.000000, total vol 183256, vol(u>maxvel) 4.57195, cell count 911268
bounding box (containing cells with vel>maxvel): xmin -12.2958 -1.72277 -0.492142, xmax 1.89742 1.72275 3.89666m 
bounding box of vehicle: xmin -12.2 -1.30007 -6.07152e-18, xmax 2.41231e-18 1.30013 3.6m 
gts area: 163.391 
yplus max: 167.295, yplus min: 0.719838 
position of yplus max: -12.0258 -1.29323 0.0340221 
yplus prom: 21.0893 
forces: 1660.952090 0.012598 -619.684680 
Drag coefficient: 0.463513 
torque (ref. CG): -0.017637 (roll) -1454.743622 (pitch) -0.076848 (yaw) 
----------------------------------------------------- 
step 250, time 0.187500, maxvel 30.000000, total vol 183256, vol(u>maxvel) 4.55833, cell count 909100
bounding box (containing cells with vel>maxvel): xmin -12.2958 -1.72277 -0.492142, xmax 1.89751 1.72275 3.89666m 
bounding box of vehicle: xmin -12.2 -1.30007 -6.07152e-18, xmax 2.41231e-18 1.30013 3.6m 
gts area: 163.391 
yplus max: 167.295, yplus min: 0.719543 
position of yplus max: -12.0258 -1.29323 0.0340221 
yplus prom: 21.0846 
forces: 1657.398503 0.011670 -619.068605 
Drag coefficient: 0.462521 
torque (ref. CG): -0.016337 (roll) -1455.960584 (pitch) -0.071184 (yaw) 
----------------------------------------------------- 

===================================================================================
=   BAD TERMINATION OF ONE OF YOUR APPLICATION PROCESSES
=   PID 20725 RUNNING AT compute-0-0
=   EXIT CODE: 1
=   CLEANING UP REMAINING PROCESSES
=   YOU CAN IGNORE THE BELOW CLEANUP MESSAGES
===================================================================================
[proxy:0:1@compute-0-1.local] HYD_pmcd_pmip_control_cmd_cb (pm/pmiserv/pmip_cb.c:909): assert (!closed) failed
[proxy:0:1@compute-0-1.local] HYDT_dmxu_poll_wait_for_event (tools/demux/demux_poll.c:76): callback returned error status
[proxy:0:1@compute-0-1.local] main (pm/pmiserv/pmip.c:206): demux engine error waiting for event
[proxy:0:3@compute-0-3.local] HYD_pmcd_pmip_control_cmd_cb (pm/pmiserv/pmip_cb.c:909): assert (!closed) failed
[proxy:0:3@compute-0-3.local] HYDT_dmxu_poll_wait_for_event (tools/demux/demux_poll.c:76): callback returned error status
[proxy:0:3@compute-0-3.local] main (pm/pmiserv/pmip.c:206): demux engine error waiting for event
[proxy:0:2@compute-0-2.local] HYD_pmcd_pmip_control_cmd_cb (pm/pmiserv/pmip_cb.c:909): assert (!closed) failed
[proxy:0:2@compute-0-2.local] HYDT_dmxu_poll_wait_for_event (tools/demux/demux_poll.c:76): callback returned error status
[proxy:0:2@compute-0-2.local] main (pm/pmiserv/pmip.c:206): demux engine error waiting for event
srun: error: compute-0-3: task 3: Exited with exit code 7
srun: error: compute-0-1: task 1: Exited with exit code 7
srun: error: compute-0-2: task 2: Exited with exit code 7
[mpiexec@compute-0-0.local] HYDT_bscu_wait_for_completion (tools/bootstrap/utils/bscu_wait.c:76): one of the processes terminated badly; aborting
[mpiexec@compute-0-0.local] HYDT_bsci_wait_for_completion (tools/bootstrap/src/bsci_wait.c:23): launcher returned error waiting for completion
[mpiexec@compute-0-0.local] HYD_pmci_wait_for_completion (pm/pmiserv/pmiserv_pmci.c:218): launcher returned error waiting for completion
[mpiexec@compute-0-0.local] main (ui/mpich/mpiexec.c:344): process manager error waiting for completion
 solver script exited with status 255.

Error running the calculation.

Check Code_Saturne log (listing) and error* files for details.


 *****************************
  Post-calculation operations
 *****************************

 Error in calculation stage.

make: *** [run] Error 1
