Start run at mié sep 21 13:45:57 ART 2022
PYTHON_CS_XFLAGS=' -O0 -g3 -ggdb3 -I/usr/include/jsoncpp ' /share/storage/pub/mstorti/saturne-vof/bin/code_saturne  run --param setup.xml

The following have been reloaded with a version change:
  1) llvm/6.0.0 => llvm/3.4.2


The following have been reloaded with a version change:
  1) llvm/3.4.2 => llvm/6.0.0


                      Code_Saturne
                      ************

 Version:   6.1-alpha
 Path:      /share/storage/pub/mstorti/saturne-vof

 Result directory:
   /share/storage/finzeo/GTS_Tunay_2/RESU/20220921-1346


 ****************************************
  Compiling user subroutines and linking
 ****************************************


 ****************************
  Preparing calculation data
 ****************************

 Parallel Code_Saturne on 60 processes.


 ***************************
  Preprocessing calculation
 ***************************


 **********************
  Starting calculation
 **********************

Warning: Process to core binding is enabled and OMP_NUM_THREADS is set to non-zero (1) value
If your program has OpenMP sections, this can cause over-subscription of cores and consequently poor performance
To avoid this, please re-run your application after setting MV2_ENABLE_AFFINITY=0
Use MV2_USE_THREAD_WARNING=0 to suppress this message
step 1, time 0.000800, maxvel 3.000000, total vol 183257, vol(u>maxvel) 183257, cell count 46892568
bounding box (containing cells with vel>maxvel): xmin -37.5001 -17.7002 -0.50396, xmax 116.7 17.7002 32.1087m 
bounding box of vehicle: xmin -12.2 -1.30008 -6.44084e-18, xmax 6.64751e-18 1.30008 3.6m 
gts area: 163.426 
yplus max: 105.298, yplus min: 0 
position of yplus max: -8.09529 -1.21164 3.58697 
yplus prom: 6.80335 
forces: 49818883.573228 -791.894961 -5788593.242983 
Drag coefficient: 13902.898923 
Lateral coefficient: -0.220993 
Lift coefficient: -1615.416103 
torque (ref. CG): 1108.652946 (roll) 34436018.220316 (pitch) 4830.559264 (yaw) 
----------------------------------------------------- 
step 2, time 0.001600, maxvel 3.000000, total vol 183257, vol(u>maxvel) 183257, cell count 46874648
bounding box (containing cells with vel>maxvel): xmin -37.5001 -17.7002 -0.50396, xmax 116.7 17.7002 32.1087m 
bounding box of vehicle: xmin -12.2 -1.30008 -6.44084e-18, xmax 6.64751e-18 1.30008 3.6m 
gts area: 163.426 
yplus max: 109.029, yplus min: 0.188611 
position of yplus max: -8.09529 -1.21164 3.58697 
yplus prom: 3.2571 
forces: 766317.099774 3.398520 -95773.002015 
Drag coefficient: 213.855238 
Lateral coefficient: 0.000948 
Lift coefficient: -26.727262 
torque (ref. CG): -4.757928 (roll) 488628.627391 (pitch) -20.730970 (yaw) 
----------------------------------------------------- 
step 3, time 0.002400, maxvel 3.000000, total vol 183257, vol(u>maxvel) 183257, cell count 46570963
bounding box (containing cells with vel>maxvel): xmin -37.5001 -17.7002 -0.50396, xmax 116.7 17.7002 32.1087m 
bounding box of vehicle: xmin -12.2 -1.30008 -6.44084e-18, xmax 6.64751e-18 1.30008 3.6m 
gts area: 163.426 
yplus max: 113.397, yplus min: 0.0960289 
position of yplus max: -12.0211 -1.28993 2.00489 
yplus prom: 3.31089 
forces: 19625.420276 -3.978792 -2990.886304 
Drag coefficient: 5.476844 
Lateral coefficient: -0.001110 
Lift coefficient: -0.834663 
torque (ref. CG): 5.570308 (roll) 9231.181933 (pitch) 24.270630 (yaw) 
----------------------------------------------------- 
step 4, time 0.003200, maxvel 3.000000, total vol 183257, vol(u>maxvel) 183257, cell count 46485310
bounding box (containing cells with vel>maxvel): xmin -37.5001 -17.7002 -0.50396, xmax 116.7 17.7002 32.1087m 
bounding box of vehicle: xmin -12.2 -1.30008 -6.44084e-18, xmax 6.64751e-18 1.30008 3.6m 
gts area: 163.426 
yplus max: 114.555, yplus min: 0.0387759 
position of yplus max: -12.0304 -1.28988 1.94884 
yplus prom: 3.13869 
forces: 2389.283509 0.872685 -815.397936 
Drag coefficient: 0.666775 
Lateral coefficient: 0.000244 
Lift coefficient: -0.227552 
torque (ref. CG): -1.221758 (roll) -1628.930497 (pitch) -5.323375 (yaw) 
----------------------------------------------------- 
step 5, time 0.004000, maxvel 3.000000, total vol 183257, vol(u>maxvel) 183257, cell count 46420268
bounding box (containing cells with vel>maxvel): xmin -37.5001 -17.7002 -0.50396, xmax 116.7 17.7002 32.1087m 
bounding box of vehicle: xmin -12.2 -1.30008 -6.44084e-18, xmax 6.64751e-18 1.30008 3.6m 
gts area: 163.426 
yplus max: 116.477, yplus min: 0.0252555 
position of yplus max: -12.0492 1.28104 1.98621 
yplus prom: 2.92247 
forces: 2423.870996 -0.184109 -883.161019 
Drag coefficient: 0.676427 
Lateral coefficient: -0.000051 
Lift coefficient: -0.246463 
torque (ref. CG): 0.257752 (roll) -1993.862824 (pitch) 1.123062 (yaw) 
----------------------------------------------------- 
step 6, time 0.004800, maxvel 3.000000, total vol 183257, vol(u>maxvel) 183257, cell count 46271959
bounding box (containing cells with vel>maxvel): xmin -37.5001 -17.7002 -0.50396, xmax 116.7 17.7002 32.1087m 
bounding box of vehicle: xmin -12.2 -1.30008 -6.44084e-18, xmax 6.64751e-18 1.30008 3.6m 
gts area: 163.426 
yplus max: 118.439, yplus min: 0.0129797 
position of yplus max: -12.0492 1.28104 1.98621 
yplus prom: 2.83914 
forces: 2648.390505 -0.213918 -903.131234 
Drag coefficient: 0.739083 
Lateral coefficient: -0.000060 
Lift coefficient: -0.252036 
torque (ref. CG): 0.299485 (roll) -1801.353820 (pitch) 1.304899 (yaw) 
----------------------------------------------------- 
step 7, time 0.005600, maxvel 3.000000, total vol 183257, vol(u>maxvel) 183257, cell count 44982964
bounding box (containing cells with vel>maxvel): xmin -37.5001 -17.7002 -0.50396, xmax 116.7 17.7002 32.1087m 
bounding box of vehicle: xmin -12.2 -1.30008 -6.44084e-18, xmax 6.64751e-18 1.30008 3.6m 
gts area: 163.426 
yplus max: 120.274, yplus min: 0.0447293 
position of yplus max: -12.0492 1.28104 1.98621 
yplus prom: 2.79398 
forces: 2792.335654 -0.192121 -901.277359 
Drag coefficient: 0.779254 
Lateral coefficient: -0.000054 
Lift coefficient: -0.251518 
torque (ref. CG): 0.268970 (roll) -1588.521975 (pitch) 1.171941 (yaw) 
----------------------------------------------------- 
step 8, time 0.006400, maxvel 3.000000, total vol 183257, vol(u>maxvel) 183257, cell count 44859724
bounding box (containing cells with vel>maxvel): xmin -37.5001 -17.7002 -0.50396, xmax 116.7 17.7002 32.1087m 
bounding box of vehicle: xmin -12.2 -1.30008 -6.44084e-18, xmax 6.64751e-18 1.30008 3.6m 
gts area: 163.426 
yplus max: 121.943, yplus min: 0.0400237 
position of yplus max: -12.0492 1.28104 1.98621 
yplus prom: 2.77306 
forces: 2907.080988 -0.160533 -896.742976 
Drag coefficient: 0.811276 
Lateral coefficient: -0.000045 
Lift coefficient: -0.250253 
torque (ref. CG): 0.224746 (roll) -1400.218767 (pitch) 0.979251 (yaw) 
----------------------------------------------------- 
step 9, time 0.007200, maxvel 3.000000, total vol 183257, vol(u>maxvel) 183257, cell count 44859873
bounding box (containing cells with vel>maxvel): xmin -37.5001 -17.7002 -0.50396, xmax 116.7 17.7002 32.1087m 
bounding box of vehicle: xmin -12.2 -1.30008 -6.44084e-18, xmax 6.64751e-18 1.30008 3.6m 
gts area: 163.426 
yplus max: 123.426, yplus min: 0.0378441 
position of yplus max: -12.0492 1.28104 1.98621 
yplus prom: 2.76853 
forces: 2997.155436 -0.117529 -893.099747 
Drag coefficient: 0.836413 
Lateral coefficient: -0.000033 
Lift coefficient: -0.249236 
torque (ref. CG): 0.164541 (roll) -1251.890849 (pitch) 0.716929 (yaw) 
----------------------------------------------------- 
step 10, time 0.008000, maxvel 3.000000, total vol 183257, vol(u>maxvel) 183257, cell count 45060775
bounding box (containing cells with vel>maxvel): xmin -37.5001 -17.7002 -0.50396, xmax 116.7 17.7002 32.1087m 
bounding box of vehicle: xmin -12.2 -1.30008 -6.44084e-18, xmax 6.64751e-18 1.30008 3.6m 
gts area: 163.426 
yplus max: 124.711, yplus min: 0.036774 
position of yplus max: -12.0492 1.28104 1.98621 
yplus prom: 2.77603 
forces: 3069.550233 -0.101109 -890.249285 
Drag coefficient: 0.856616 
Lateral coefficient: -0.000028 
Lift coefficient: -0.248441 
torque (ref. CG): 0.141553 (roll) -1133.150314 (pitch) 0.616767 (yaw) 
----------------------------------------------------- 
step 11, time 0.008800, maxvel 3.000000, total vol 183257, vol(u>maxvel) 183257, cell count 46040834
bounding box (containing cells with vel>maxvel): xmin -37.5001 -17.7002 -0.50396, xmax 116.7 17.7002 32.1087m 
bounding box of vehicle: xmin -12.2 -1.30008 -6.44084e-18, xmax 6.64751e-18 1.30008 3.6m 
gts area: 163.426 
yplus max: 125.855, yplus min: 0.0315139 
position of yplus max: -12.0304 -1.28988 1.94884 
yplus prom: 2.79179 
forces: 3126.444669 -0.077788 -888.374068 
Drag coefficient: 0.872493 
Lateral coefficient: -0.000022 
Lift coefficient: -0.247918 
torque (ref. CG): 0.108904 (roll) -1042.059277 (pitch) 0.474508 (yaw) 
----------------------------------------------------- 
step 12, time 0.009600, maxvel 3.000000, total vol 183257, vol(u>maxvel) 183257, cell count 46105678
bounding box (containing cells with vel>maxvel): xmin -37.5001 -17.7002 -0.50396, xmax 116.7 17.7002 32.1087m 
bounding box of vehicle: xmin -12.2 -1.30008 -6.44084e-18, xmax 6.64751e-18 1.30008 3.6m 
gts area: 163.426 
yplus max: 126.934, yplus min: 0.0315673 
position of yplus max: -12.0304 -1.28988 1.94884 
yplus prom: 2.81275 
forces: 3168.048967 -0.062223 -887.423870 
Drag coefficient: 0.884104 
Lateral coefficient: -0.000017 
Lift coefficient: -0.247652 
torque (ref. CG): 0.087112 (roll) -978.017051 (pitch) 0.379558 (yaw) 
----------------------------------------------------- 
step 13, time 0.010400, maxvel 3.000000, total vol 183257, vol(u>maxvel) 183257, cell count 46119401
bounding box (containing cells with vel>maxvel): xmin -37.5001 -17.7002 -0.50396, xmax 116.7 17.7002 32.1087m 
bounding box of vehicle: xmin -12.2 -1.30008 -6.44084e-18, xmax 6.64751e-18 1.30008 3.6m 
gts area: 163.426 
yplus max: 127.837, yplus min: 0.0266089 
position of yplus max: -12.0304 -1.28988 1.94884 
yplus prom: 2.83615 
forces: 3198.694524 -0.059189 -886.588664 
Drag coefficient: 0.892656 
Lateral coefficient: -0.000017 
Lift coefficient: -0.247419 
torque (ref. CG): 0.082864 (roll) -930.018517 (pitch) 0.361052 (yaw) 
----------------------------------------------------- 
step 14, time 0.011200, maxvel 3.000000, total vol 183257, vol(u>maxvel) 183257, cell count 46130506
bounding box (containing cells with vel>maxvel): xmin -37.5001 -17.7002 -0.50396, xmax 116.7 17.7002 32.1087m 
bounding box of vehicle: xmin -12.2 -1.30008 -6.44084e-18, xmax 6.64751e-18 1.30008 3.6m 
gts area: 163.426 
yplus max: 128.574, yplus min: 0.0178566 
position of yplus max: -12.0304 -1.28988 1.94884 
yplus prom: 2.86035 
forces: 3222.805966 -0.036395 -886.127382 
Drag coefficient: 0.899385 
Lateral coefficient: -0.000010 
Lift coefficient: -0.247291 
torque (ref. CG): 0.050953 (roll) -893.448676 (pitch) 0.222011 (yaw) 
----------------------------------------------------- 
step 15, time 0.012000, maxvel 3.000000, total vol 183257, vol(u>maxvel) 183257, cell count 46140264
bounding box (containing cells with vel>maxvel): xmin -37.5001 -17.7002 -0.50396, xmax 116.7 17.7002 32.1087m 
bounding box of vehicle: xmin -12.2 -1.30008 -6.44084e-18, xmax 6.64751e-18 1.30008 3.6m 
gts area: 163.426 
yplus max: 129.162, yplus min: 0.0207598 
position of yplus max: -12.0304 -1.28988 1.94884 
yplus prom: 2.88457 
forces: 3238.222166 -0.039742 -886.035747 
Drag coefficient: 0.903687 
Lateral coefficient: -0.000011 
Lift coefficient: -0.247265 
torque (ref. CG): 0.055639 (roll) -871.307022 (pitch) 0.242428 (yaw) 
----------------------------------------------------- 
step 16, time 0.012800, maxvel 3.000000, total vol 183257, vol(u>maxvel) 183257, cell count 46126392
bounding box (containing cells with vel>maxvel): xmin -37.5001 -17.7002 -0.50396, xmax 116.7 17.7002 32.1087m 
bounding box of vehicle: xmin -12.2 -1.30008 -6.44084e-18, xmax 6.64751e-18 1.30008 3.6m 
gts area: 163.426 
yplus max: 129.623, yplus min: 0.024655 
position of yplus max: -12.0304 -1.28988 1.94884 
yplus prom: 2.90805 
forces: 3247.112980 -0.013407 -885.889832 
Drag coefficient: 0.906168 
Lateral coefficient: -0.000004 
Lift coefficient: -0.247224 
torque (ref. CG): 0.018770 (roll) -857.969805 (pitch) 0.081783 (yaw) 
----------------------------------------------------- 
step 17, time 0.013600, maxvel 3.000000, total vol 183257, vol(u>maxvel) 183257, cell count 46109383
bounding box (containing cells with vel>maxvel): xmin -37.5001 -17.7002 -0.50396, xmax 116.7 17.7002 32.1087m 
bounding box of vehicle: xmin -12.2 -1.30008 -6.44084e-18, xmax 6.64751e-18 1.30008 3.6m 
gts area: 163.426 
yplus max: 129.976, yplus min: 0.0163424 
position of yplus max: -12.0304 -1.28988 1.94884 
yplus prom: 2.93034 
forces: 3251.101017 -0.004670 -885.591077 
Drag coefficient: 0.907281 
Lateral coefficient: -0.000001 
Lift coefficient: -0.247141 
torque (ref. CG): 0.006538 (roll) -850.564147 (pitch) 0.028488 (yaw) 
----------------------------------------------------- 
step 18, time 0.014400, maxvel 3.000000, total vol 183257, vol(u>maxvel) 183256, cell count 46095715
bounding box (containing cells with vel>maxvel): xmin -37.5001 -17.7002 -0.50396, xmax 116.7 17.7002 32.1087m 
bounding box of vehicle: xmin -12.2 -1.30008 -6.44084e-18, xmax 6.64751e-18 1.30008 3.6m 
gts area: 163.426 
yplus max: 130.244, yplus min: 0.00995384 
position of yplus max: -12.0304 -1.28988 1.94884 
yplus prom: 2.95089 
forces: 3250.451532 -0.010790 -885.107981 
Drag coefficient: 0.907100 
Lateral coefficient: -0.000003 
Lift coefficient: -0.247006 
torque (ref. CG): 0.015107 (roll) -848.526539 (pitch) 0.065822 (yaw) 
----------------------------------------------------- 
step 19, time 0.015200, maxvel 3.000000, total vol 183257, vol(u>maxvel) 183256, cell count 46076286
bounding box (containing cells with vel>maxvel): xmin -37.5001 -17.7002 -0.50396, xmax 116.7 17.7002 32.1087m 
bounding box of vehicle: xmin -12.2 -1.30008 -6.44084e-18, xmax 6.64751e-18 1.30008 3.6m 
gts area: 163.426 
yplus max: 130.443, yplus min: 0.0148391 
position of yplus max: -12.0304 -1.28988 1.94884 
yplus prom: 2.96948 
forces: 3245.958524 0.013454 -884.673766 
Drag coefficient: 0.905846 
Lateral coefficient: 0.000004 
Lift coefficient: -0.246885 
torque (ref. CG): -0.018835 (roll) -852.168038 (pitch) -0.082068 (yaw) 
----------------------------------------------------- 
step 20, time 0.016000, maxvel 3.000000, total vol 183257, vol(u>maxvel) 183256, cell count 46058068
bounding box (containing cells with vel>maxvel): xmin -37.5001 -17.7002 -0.50396, xmax 116.7 17.7002 32.1087m 
bounding box of vehicle: xmin -12.2 -1.30008 -6.44084e-18, xmax 6.64751e-18 1.30008 3.6m 
gts area: 163.426 
yplus max: 130.589, yplus min: 0.0164987 
position of yplus max: -12.0304 -1.28988 1.94884 
yplus prom: 2.98605 
forces: 3238.717893 0.014590 -884.152903 
Drag coefficient: 0.903825 
Lateral coefficient: 0.000004 
Lift coefficient: -0.246740 
torque (ref. CG): -0.020426 (roll) -859.127658 (pitch) -0.088997 (yaw) 
----------------------------------------------------- 
step 21, time 0.016800, maxvel 3.000000, total vol 183257, vol(u>maxvel) 183256, cell count 46034383
bounding box (containing cells with vel>maxvel): xmin -37.5001 -17.7002 -0.50396, xmax 116.7 17.7002 32.1087m 
bounding box of vehicle: xmin -12.2 -1.30008 -6.44084e-18, xmax 6.64751e-18 1.30008 3.6m 
gts area: 163.426 
yplus max: 130.696, yplus min: 0.00457421 
position of yplus max: -12.0304 -1.28988 1.94884 
yplus prom: 3.00062 
forces: 3229.687938 0.013041 -883.640481 
Drag coefficient: 0.901305 
Lateral coefficient: 0.000004 
Lift coefficient: -0.246597 
torque (ref. CG): -0.018257 (roll) -868.643823 (pitch) -0.079551 (yaw) 
----------------------------------------------------- 
step 22, time 0.017600, maxvel 3.000000, total vol 183257, vol(u>maxvel) 183256, cell count 46008594
bounding box (containing cells with vel>maxvel): xmin -37.5001 -17.7002 -0.50396, xmax 116.7 17.7002 32.1087m 
bounding box of vehicle: xmin -12.2 -1.30008 -6.44084e-18, xmax 6.64751e-18 1.30008 3.6m 
gts area: 163.426 
yplus max: 130.771, yplus min: 0.0134793 
position of yplus max: -12.0304 -1.28988 1.94884 
yplus prom: 3.0134 
forces: 3219.445045 0.014776 -883.156668 
Drag coefficient: 0.898447 
Lateral coefficient: 0.000004 
Lift coefficient: -0.246462 
torque (ref. CG): -0.020687 (roll) -880.032613 (pitch) -0.090136 (yaw) 
----------------------------------------------------- 
step 23, time 0.018400, maxvel 3.000000, total vol 183257, vol(u>maxvel) 183256, cell count 45980245
bounding box (containing cells with vel>maxvel): xmin -37.5001 -17.7002 -0.50396, xmax 116.7 17.7002 32.1087m 
bounding box of vehicle: xmin -12.2 -1.30008 -6.44084e-18, xmax 6.64751e-18 1.30008 3.6m 
gts area: 163.426 
yplus max: 130.823, yplus min: 0.0192663 
position of yplus max: -12.0304 -1.28988 1.94884 
yplus prom: 3.02462 
forces: 3208.007608 0.013851 -882.713880 
Drag coefficient: 0.895255 
Lateral coefficient: 0.000004 
Lift coefficient: -0.246338 
torque (ref. CG): -0.019391 (roll) -893.344016 (pitch) -0.084489 (yaw) 
----------------------------------------------------- 
step 24, time 0.019200, maxvel 3.000000, total vol 183257, vol(u>maxvel) 183256, cell count 45951819
bounding box (containing cells with vel>maxvel): xmin -37.5001 -17.7002 -0.50396, xmax 116.7 17.7002 32.1087m 
bounding box of vehicle: xmin -12.2 -1.30008 -6.44084e-18, xmax 6.64751e-18 1.30008 3.6m 
gts area: 163.426 
yplus max: 130.858, yplus min: 0.0219055 
position of yplus max: -12.0304 -1.28988 1.94884 
yplus prom: 3.03449 
forces: 3195.962495 0.015212 -882.329084 
Drag coefficient: 0.891894 
Lateral coefficient: 0.000004 
Lift coefficient: -0.246231 
torque (ref. CG): -0.021297 (roll) -907.859918 (pitch) -0.092793 (yaw) 
----------------------------------------------------- 
step 25, time 0.020000, maxvel 3.000000, total vol 183257, vol(u>maxvel) 183256, cell count 45919705
bounding box (containing cells with vel>maxvel): xmin -37.5001 -17.7002 -0.50396, xmax 116.7 17.7002 32.1087m 
bounding box of vehicle: xmin -12.2 -1.30008 -6.44084e-18, xmax 6.64751e-18 1.30008 3.6m 
gts area: 163.426 
yplus max: 130.88, yplus min: 0.00983899 
position of yplus max: -12.0304 -1.28988 1.94884 
yplus prom: 3.04309 
forces: 3183.220562 0.017474 -881.994603 
Drag coefficient: 0.888338 
Lateral coefficient: 0.000005 
Lift coefficient: -0.246137 
torque (ref. CG): -0.024463 (roll) -923.658292 (pitch) -0.106589 (yaw) 
----------------------------------------------------- 
step 26, time 0.020800, maxvel 3.000000, total vol 183257, vol(u>maxvel) 183256, cell count 45886769
bounding box (containing cells with vel>maxvel): xmin -37.5001 -17.7002 -0.50396, xmax 116.7 17.7002 32.1087m 
bounding box of vehicle: xmin -12.2 -1.30008 -6.44084e-18, xmax 6.64751e-18 1.30008 3.6m 
gts area: 163.426 
yplus max: 130.891, yplus min: 0.00890535 
position of yplus max: -12.0304 -1.28988 1.94884 
yplus prom: 3.05056 
forces: 3170.201757 0.016748 -881.534242 
Drag coefficient: 0.884705 
Lateral coefficient: 0.000005 
Lift coefficient: -0.246009 
torque (ref. CG): -0.023447 (roll) -939.076415 (pitch) -0.102161 (yaw) 
----------------------------------------------------- 
step 27, time 0.021600, maxvel 3.000000, total vol 183257, vol(u>maxvel) 183256, cell count 45865343
bounding box (containing cells with vel>maxvel): xmin -37.5001 -17.7002 -0.50396, xmax 116.7 17.7002 32.1087m 
bounding box of vehicle: xmin -12.2 -1.30008 -6.44084e-18, xmax 6.64751e-18 1.30008 3.6m 
gts area: 163.426 
yplus max: 130.896, yplus min: 0.015434 
position of yplus max: -12.0304 -1.28988 1.94884 
yplus prom: 3.05696 
forces: 3157.809420 0.018874 -881.155342 
Drag coefficient: 0.881246 
Lateral coefficient: 0.000005 
Lift coefficient: -0.245903 
torque (ref. CG): -0.026423 (roll) -954.114396 (pitch) -0.115131 (yaw) 
----------------------------------------------------- 
step 28, time 0.022400, maxvel 3.000000, total vol 183257, vol(u>maxvel) 183256, cell count 45851089
bounding box (containing cells with vel>maxvel): xmin -37.5001 -17.7002 -0.50396, xmax 116.7 17.7002 32.1087m 
bounding box of vehicle: xmin -12.2 -1.30008 -6.44084e-18, xmax 6.64751e-18 1.30008 3.6m 
gts area: 163.426 
yplus max: 130.894, yplus min: 0.0233549 
position of yplus max: -12.0304 -1.28988 1.94884 
yplus prom: 3.0624 
forces: 3145.940734 0.020240 -880.912077 
Drag coefficient: 0.877934 
Lateral coefficient: 0.000006 
Lift coefficient: -0.245835 
torque (ref. CG): -0.028336 (roll) -969.246645 (pitch) -0.123464 (yaw) 
----------------------------------------------------- 
step 29, time 0.023200, maxvel 3.000000, total vol 183257, vol(u>maxvel) 183256, cell count 45842467
bounding box (containing cells with vel>maxvel): xmin -37.5001 -17.7002 -0.50396, xmax 116.7 17.7002 32.1087m 
bounding box of vehicle: xmin -12.2 -1.30008 -6.44084e-18, xmax 6.64751e-18 1.30008 3.6m 
gts area: 163.426 
yplus max: 130.889, yplus min: 0.027514 
position of yplus max: -12.0304 -1.28988 1.94884 
yplus prom: 3.06698 
forces: 3134.223014 0.022625 -880.597802 
Drag coefficient: 0.874664 
Lateral coefficient: 0.000006 
Lift coefficient: -0.245747 
torque (ref. CG): -0.031675 (roll) -983.734373 (pitch) -0.138013 (yaw) 
----------------------------------------------------- 
step 30, time 0.024000, maxvel 3.000000, total vol 183257, vol(u>maxvel) 183256, cell count 45836119
bounding box (containing cells with vel>maxvel): xmin -37.5001 -17.7002 -0.50396, xmax 116.7 17.7002 32.1087m 
bounding box of vehicle: xmin -12.2 -1.30008 -6.44084e-18, xmax 6.64751e-18 1.30008 3.6m 
gts area: 163.426 
yplus max: 130.88, yplus min: 0.0143526 
position of yplus max: -12.0304 -1.28988 1.94884 
yplus prom: 3.07088 
forces: 3122.590343 0.026504 -880.257523 
Drag coefficient: 0.871418 
Lateral coefficient: 0.000007 
Lift coefficient: -0.245652 
torque (ref. CG): -0.037106 (roll) -997.944413 (pitch) -0.161675 (yaw) 
----------------------------------------------------- 
step 31, time 0.024800, maxvel 3.000000, total vol 183257, vol(u>maxvel) 183256, cell count 45832479
bounding box (containing cells with vel>maxvel): xmin -37.5001 -17.7002 -0.50396, xmax 116.7 17.7002 32.1087m 
bounding box of vehicle: xmin -12.2 -1.30008 -6.44084e-18, xmax 6.64751e-18 1.30008 3.6m 
gts area: 163.426 
yplus max: 130.868, yplus min: 0.0305445 
position of yplus max: -12.0304 -1.28988 1.94884 
yplus prom: 3.07421 
forces: 3111.381505 0.025898 -879.842684 
Drag coefficient: 0.868290 
Lateral coefficient: 0.000007 
Lift coefficient: -0.245537 
torque (ref. CG): -0.036257 (roll) -1011.106264 (pitch) -0.157976 (yaw) 
----------------------------------------------------- 
step 32, time 0.025600, maxvel 3.000000, total vol 183257, vol(u>maxvel) 183256, cell count 45830219
bounding box (containing cells with vel>maxvel): xmin -37.5001 -17.7002 -0.50396, xmax 116.7 17.7002 32.1087m 
bounding box of vehicle: xmin -12.2 -1.30008 -6.44084e-18, xmax 6.64751e-18 1.30008 3.6m 
gts area: 163.426 
yplus max: 130.855, yplus min: 0.0359496 
position of yplus max: -12.0304 -1.28988 1.94884 
yplus prom: 3.07715 
forces: 3100.396051 0.023215 -879.424221 
Drag coefficient: 0.865224 
Lateral coefficient: 0.000006 
Lift coefficient: -0.245420 
torque (ref. CG): -0.032500 (roll) -1023.933277 (pitch) -0.141609 (yaw) 
----------------------------------------------------- 
step 33, time 0.026400, maxvel 3.000000, total vol 183257, vol(u>maxvel) 183256, cell count 45828752
bounding box (containing cells with vel>maxvel): xmin -37.5001 -17.7002 -0.50396, xmax 116.7 17.7002 32.1087m 
bounding box of vehicle: xmin -12.2 -1.30008 -6.44084e-18, xmax 6.64751e-18 1.30008 3.6m 
gts area: 163.426 
yplus max: 130.84, yplus min: 0.0312885 
position of yplus max: -12.0304 -1.28988 1.94884 
yplus prom: 3.07976 
forces: 3089.631983 0.026618 -878.942760 
Drag coefficient: 0.862220 
Lateral coefficient: 0.000007 
Lift coefficient: -0.245286 
torque (ref. CG): -0.037265 (roll) -1036.066062 (pitch) -0.162367 (yaw) 
----------------------------------------------------- 
step 34, time 0.027200, maxvel 3.000000, total vol 183257, vol(u>maxvel) 183256, cell count 45828051
bounding box (containing cells with vel>maxvel): xmin -37.5001 -17.7002 -0.50396, xmax 116.7 17.7002 32.1087m 
bounding box of vehicle: xmin -12.2 -1.30008 -6.44084e-18, xmax 6.64751e-18 1.30008 3.6m 
gts area: 163.426 
yplus max: 130.825, yplus min: 0.0227926 
position of yplus max: -12.0304 -1.28988 1.94884 
yplus prom: 3.08204 
forces: 3078.788203 0.024736 -878.412674 
Drag coefficient: 0.859194 
Lateral coefficient: 0.000007 
Lift coefficient: -0.245138 
torque (ref. CG): -0.034630 (roll) -1048.013826 (pitch) -0.150889 (yaw) 
----------------------------------------------------- 
step 35, time 0.028000, maxvel 3.000000, total vol 183257, vol(u>maxvel) 183256, cell count 45827952
bounding box (containing cells with vel>maxvel): xmin -37.5001 -17.7002 -0.50396, xmax 116.7 17.7002 32.1087m 
bounding box of vehicle: xmin -12.2 -1.30008 -6.44084e-18, xmax 6.64751e-18 1.30008 3.6m 
gts area: 163.426 
yplus max: 130.808, yplus min: 0.0178549 
position of yplus max: -12.0304 -1.28988 1.94884 
yplus prom: 3.08402 
forces: 3067.782529 0.025446 -877.856422 
Drag coefficient: 0.856123 
Lateral coefficient: 0.000007 
Lift coefficient: -0.244982 
torque (ref. CG): -0.035624 (roll) -1060.028634 (pitch) -0.155221 (yaw) 
----------------------------------------------------- 
step 36, time 0.028800, maxvel 3.000000, total vol 183257, vol(u>maxvel) 183256, cell count 45827797
bounding box (containing cells with vel>maxvel): xmin -37.5001 -17.7002 -0.50396, xmax 116.7 17.7002 32.1087m 
bounding box of vehicle: xmin -12.2 -1.30008 -6.44084e-18, xmax 6.64751e-18 1.30008 3.6m 
gts area: 163.426 
yplus max: 130.792, yplus min: 0.0191251 
position of yplus max: -12.0304 -1.28988 1.94884 
yplus prom: 3.08576 
forces: 3056.724033 0.023266 -877.319864 
Drag coefficient: 0.853036 
Lateral coefficient: 0.000006 
Lift coefficient: -0.244833 
torque (ref. CG): -0.032572 (roll) -1072.237524 (pitch) -0.141920 (yaw) 
----------------------------------------------------- 
step 37, time 0.029600, maxvel 3.000000, total vol 183257, vol(u>maxvel) 183256, cell count 45830666
bounding box (containing cells with vel>maxvel): xmin -37.5001 -17.7002 -0.50396, xmax 116.7 17.7002 32.1087m 
bounding box of vehicle: xmin -12.2 -1.30008 -6.44084e-18, xmax 6.64751e-18 1.30008 3.6m 
gts area: 163.426 
yplus max: 130.775, yplus min: 0.0274943 
position of yplus max: -12.0304 -1.28988 1.94884 
yplus prom: 3.08727 
forces: 3045.546040 0.019995 -876.751030 
Drag coefficient: 0.849917 
Lateral coefficient: 0.000006 
Lift coefficient: -0.244674 
torque (ref. CG): -0.027993 (roll) -1084.416829 (pitch) -0.121971 (yaw) 
----------------------------------------------------- 
step 38, time 0.030400, maxvel 3.000000, total vol 183257, vol(u>maxvel) 183256, cell count 45834669
bounding box (containing cells with vel>maxvel): xmin -37.5001 -17.7002 -0.50396, xmax 116.7 17.7002 32.1087m 
bounding box of vehicle: xmin -12.2 -1.30008 -6.44084e-18, xmax 6.64751e-18 1.30008 3.6m 
gts area: 163.426 
yplus max: 130.759, yplus min: 0.0266346 
position of yplus max: -12.0304 -1.28988 1.94884 
yplus prom: 3.08856 
forces: 3034.189681 0.020225 -876.192625 
Drag coefficient: 0.846748 
Lateral coefficient: 0.000006 
Lift coefficient: -0.244518 
torque (ref. CG): -0.028315 (roll) -1096.909458 (pitch) -0.123373 (yaw) 
----------------------------------------------------- 
step 39, time 0.031200, maxvel 3.000000, total vol 183257, vol(u>maxvel) 183256, cell count 45840271
bounding box (containing cells with vel>maxvel): xmin -37.5001 -17.7002 -0.50396, xmax 116.7 17.7002 32.1087m 
bounding box of vehicle: xmin -12.2 -1.30008 -6.44084e-18, xmax 6.64751e-18 1.30008 3.6m 
gts area: 163.426 
yplus max: 130.742, yplus min: 0.0220287 
position of yplus max: -12.0304 -1.28988 1.94884 
yplus prom: 3.08967 
forces: 3022.739740 0.016341 -875.588038 
Drag coefficient: 0.843553 
Lateral coefficient: 0.000005 
Lift coefficient: -0.244349 
torque (ref. CG): -0.022878 (roll) -1109.251397 (pitch) -0.099683 (yaw) 
----------------------------------------------------- 
step 40, time 0.032000, maxvel 3.000000, total vol 183257, vol(u>maxvel) 183256, cell count 45844624
bounding box (containing cells with vel>maxvel): xmin -37.5001 -17.7002 -0.50396, xmax 116.7 17.7002 32.1087m 
bounding box of vehicle: xmin -12.2 -1.30008 -6.44084e-18, xmax 6.64751e-18 1.30008 3.6m 
gts area: 163.426 
yplus max: 130.726, yplus min: 0.0293462 
position of yplus max: -12.0304 -1.28988 1.94884 
yplus prom: 3.09059 
forces: 3011.111820 0.017290 -875.051049 
Drag coefficient: 0.840308 
Lateral coefficient: 0.000005 
Lift coefficient: -0.244199 
torque (ref. CG): -0.024207 (roll) -1122.254851 (pitch) -0.105472 (yaw) 
----------------------------------------------------- 
step 41, time 0.032800, maxvel 3.000000, total vol 183257, vol(u>maxvel) 183256, cell count 45848809
bounding box (containing cells with vel>maxvel): xmin -37.5001 -17.7002 -0.50396, xmax 116.7 17.7002 32.1087m 
bounding box of vehicle: xmin -12.2 -1.30008 -6.44084e-18, xmax 6.64751e-18 1.30008 3.6m 
gts area: 163.426 
yplus max: 130.71, yplus min: 0.0274531 
position of yplus max: -12.0304 -1.28988 1.94884 
yplus prom: 3.09134 
forces: 2999.399329 0.016989 -874.490064 
Drag coefficient: 0.837039 
Lateral coefficient: 0.000005 
Lift coefficient: -0.244043 
torque (ref. CG): -0.023784 (roll) -1135.230329 (pitch) -0.103632 (yaw) 
----------------------------------------------------- 
step 42, time 0.033600, maxvel 3.000000, total vol 183257, vol(u>maxvel) 183256, cell count 45852546
bounding box (containing cells with vel>maxvel): xmin -37.5001 -17.7002 -0.50396, xmax 116.7 17.7002 32.1087m 
bounding box of vehicle: xmin -12.2 -1.30008 -6.44084e-18, xmax 6.64751e-18 1.30008 3.6m 
gts area: 163.426 
yplus max: 130.694, yplus min: 0.028318 
position of yplus max: -12.0304 -1.28988 1.94884 
yplus prom: 3.09193 
forces: 2987.546973 0.014624 -873.989385 
Drag coefficient: 0.833731 
Lateral coefficient: 0.000004 
Lift coefficient: -0.243903 
torque (ref. CG): -0.020474 (roll) -1148.769488 (pitch) -0.089208 (yaw) 
----------------------------------------------------- 
step 43, time 0.034400, maxvel 3.000000, total vol 183257, vol(u>maxvel) 183256, cell count 45855816
bounding box (containing cells with vel>maxvel): xmin -37.5001 -17.7002 -0.50396, xmax 116.7 17.7002 32.1087m 
bounding box of vehicle: xmin -12.2 -1.30008 -6.44084e-18, xmax 6.64751e-18 1.30008 3.6m 
gts area: 163.426 
yplus max: 130.679, yplus min: 0.0283149 
position of yplus max: -12.0304 -1.28988 1.94884 
yplus prom: 3.09237 
forces: 2975.610757 0.012541 -873.435612 
Drag coefficient: 0.830400 
Lateral coefficient: 0.000003 
Lift coefficient: -0.243749 
torque (ref. CG): -0.017557 (roll) -1162.102174 (pitch) -0.076498 (yaw) 
----------------------------------------------------- 
step 44, time 0.035200, maxvel 3.000000, total vol 183257, vol(u>maxvel) 183256, cell count 45856826
bounding box (containing cells with vel>maxvel): xmin -37.5001 -17.7002 -0.50396, xmax 116.7 17.7002 32.1087m 
bounding box of vehicle: xmin -12.2 -1.30008 -6.44084e-18, xmax 6.64751e-18 1.30008 3.6m 
gts area: 163.426 
yplus max: 130.665, yplus min: 0.0298495 
position of yplus max: -12.0304 -1.28988 1.94884 
yplus prom: 3.09268 
forces: 2963.546030 0.010034 -873.027038 
Drag coefficient: 0.827033 
Lateral coefficient: 0.000003 
Lift coefficient: -0.243635 
torque (ref. CG): -0.014047 (roll) -1176.500488 (pitch) -0.061206 (yaw) 
----------------------------------------------------- 
step 45, time 0.036000, maxvel 3.000000, total vol 183257, vol(u>maxvel) 183256, cell count 45859152
bounding box (containing cells with vel>maxvel): xmin -37.5001 -17.7002 -0.50396, xmax 116.7 17.7002 32.1087m 
bounding box of vehicle: xmin -12.2 -1.30008 -6.44084e-18, xmax 6.64751e-18 1.30008 3.6m 
gts area: 163.426 
yplus max: 130.65, yplus min: 0.0287242 
position of yplus max: -12.0304 -1.28988 1.94884 
yplus prom: 3.09289 
forces: 2951.853505 0.012918 -872.600965 
Drag coefficient: 0.823770 
Lateral coefficient: 0.000004 
Lift coefficient: -0.243516 
torque (ref. CG): -0.018085 (roll) -1190.270977 (pitch) -0.078800 (yaw) 
----------------------------------------------------- 
step 46, time 0.036800, maxvel 3.000000, total vol 183257, vol(u>maxvel) 183256, cell count 45861447
bounding box (containing cells with vel>maxvel): xmin -37.5001 -17.7002 -0.50396, xmax 116.7 17.7002 32.1087m 
bounding box of vehicle: xmin -12.2 -1.30008 -6.44084e-18, xmax 6.64751e-18 1.30008 3.6m 
gts area: 163.426 
yplus max: 130.637, yplus min: 0.0288007 
position of yplus max: -12.0304 -1.28988 1.94884 
yplus prom: 3.09302 
forces: 2940.359778 0.010715 -872.131442 
Drag coefficient: 0.820563 
Lateral coefficient: 0.000003 
Lift coefficient: -0.243385 
torque (ref. CG): -0.015001 (roll) -1203.498105 (pitch) -0.065362 (yaw) 
----------------------------------------------------- 
step 47, time 0.037600, maxvel 3.000000, total vol 183257, vol(u>maxvel) 183256, cell count 45865017
bounding box (containing cells with vel>maxvel): xmin -37.5001 -17.7002 -0.50396, xmax 116.7 17.7002 32.1087m 
bounding box of vehicle: xmin -12.2 -1.30008 -6.44084e-18, xmax 6.64751e-18 1.30008 3.6m 
gts area: 163.426 
yplus max: 130.623, yplus min: 0.0282709 
position of yplus max: -12.0304 -1.28988 1.94884 
yplus prom: 3.09305 
forces: 2928.858734 0.006998 -871.761416 
Drag coefficient: 0.817353 
Lateral coefficient: 0.000002 
Lift coefficient: -0.243281 
torque (ref. CG): -0.009797 (roll) -1217.342408 (pitch) -0.042688 (yaw) 
----------------------------------------------------- 
step 48, time 0.038400, maxvel 3.000000, total vol 183257, vol(u>maxvel) 183256, cell count 45869046
bounding box (containing cells with vel>maxvel): xmin -37.5001 -17.7002 -0.50396, xmax 116.7 17.7002 32.1087m 
bounding box of vehicle: xmin -12.2 -1.30008 -6.44084e-18, xmax 6.64751e-18 1.30008 3.6m 
gts area: 163.426 
yplus max: 130.611, yplus min: 0.0148534 
position of yplus max: -12.0304 -1.28988 1.94884 
yplus prom: 3.09298 
forces: 2917.710308 0.007682 -871.442236 
Drag coefficient: 0.814242 
Lateral coefficient: 0.000002 
Lift coefficient: -0.243192 
torque (ref. CG): -0.010755 (roll) -1231.003208 (pitch) -0.046859 (yaw) 
----------------------------------------------------- 
step 49, time 0.039200, maxvel 3.000000, total vol 183257, vol(u>maxvel) 183256, cell count 45871893
bounding box (containing cells with vel>maxvel): xmin -37.5001 -17.7002 -0.50396, xmax 116.7 17.7002 32.1087m 
bounding box of vehicle: xmin -12.2 -1.30008 -6.44084e-18, xmax 6.64751e-18 1.30008 3.6m 
gts area: 163.426 
yplus max: 130.598, yplus min: 0.0272167 
position of yplus max: -12.0304 -1.28988 1.94884 
yplus prom: 3.09282 
forces: 2906.712051 0.008068 -871.091600 
Drag coefficient: 0.811173 
Lateral coefficient: 0.000002 
Lift coefficient: -0.243095 
torque (ref. CG): -0.011295 (roll) -1244.261888 (pitch) -0.049213 (yaw) 
----------------------------------------------------- 
step 50, time 0.040000, maxvel 3.000000, total vol 183257, vol(u>maxvel) 183256, cell count 45876913
bounding box (containing cells with vel>maxvel): xmin -37.5001 -17.7002 -0.50396, xmax 116.7 17.7002 32.1087m 
bounding box of vehicle: xmin -12.2 -1.30008 -6.44084e-18, xmax 6.64751e-18 1.30008 3.6m 
gts area: 163.426 
yplus max: 130.587, yplus min: 0.0266897 
position of yplus max: -12.0304 -1.28988 1.94884 
yplus prom: 3.09255 
forces: 2895.646955 0.005394 -870.726310 
Drag coefficient: 0.808085 
Lateral coefficient: 0.000002 
Lift coefficient: -0.242993 
torque (ref. CG): -0.007551 (roll) -1257.524757 (pitch) -0.032901 (yaw) 
----------------------------------------------------- 
step 51, time 0.040800, maxvel 3.000000, total vol 183257, vol(u>maxvel) 183256, cell count 45881463
bounding box (containing cells with vel>maxvel): xmin -37.5001 -17.7002 -0.50396, xmax 116.7 17.7002 32.1087m 
bounding box of vehicle: xmin -12.2 -1.30008 -6.44084e-18, xmax 6.64751e-18 1.30008 3.6m 
gts area: 163.426 
yplus max: 130.575, yplus min: 0.0261543 
position of yplus max: -12.0304 -1.28988 1.94884 
yplus prom: 3.0922 
forces: 2884.639044 0.004081 -870.368085 
Drag coefficient: 0.805013 
Lateral coefficient: 0.000001 
Lift coefficient: -0.242893 
torque (ref. CG): -0.005714 (roll) -1270.750659 (pitch) -0.024896 (yaw) 
----------------------------------------------------- 
step 52, time 0.041600, maxvel 3.000000, total vol 183257, vol(u>maxvel) 183256, cell count 45887019
bounding box (containing cells with vel>maxvel): xmin -37.5001 -17.7002 -0.50396, xmax 116.7 17.7002 32.1087m 
bounding box of vehicle: xmin -12.2 -1.30008 -6.44084e-18, xmax 6.64751e-18 1.30008 3.6m 
gts area: 163.426 
yplus max: 130.564, yplus min: 0.025636 
position of yplus max: -12.0304 -1.28988 1.94884 
yplus prom: 3.09177 
forces: 2873.760793 0.001892 -870.011079 
Drag coefficient: 0.801977 
Lateral coefficient: 0.000001 
Lift coefficient: -0.242793 
torque (ref. CG): -0.002648 (roll) -1283.802473 (pitch) -0.011539 (yaw) 
----------------------------------------------------- 
step 53, time 0.042400, maxvel 3.000000, total vol 183257, vol(u>maxvel) 183256, cell count 45891470
bounding box (containing cells with vel>maxvel): xmin -37.5001 -17.7002 -0.50396, xmax 116.7 17.7002 32.1087m 
bounding box of vehicle: xmin -12.2 -1.30008 -6.44084e-18, xmax 6.64751e-18 1.30008 3.6m 
gts area: 163.426 
yplus max: 130.554, yplus min: 0.025119 
position of yplus max: -12.0304 -1.28988 1.94884 
yplus prom: 3.09129 
forces: 2862.962562 0.001069 -869.642652 
Drag coefficient: 0.798964 
Lateral coefficient: 0.000000 
Lift coefficient: -0.242690 
torque (ref. CG): -0.001497 (roll) -1296.672589 (pitch) -0.006521 (yaw) 
----------------------------------------------------- 
step 54, time 0.043200, maxvel 3.000000, total vol 183257, vol(u>maxvel) 183256, cell count 45896881
bounding box (containing cells with vel>maxvel): xmin -37.5001 -17.7002 -0.50396, xmax 116.7 17.7002 32.1087m 
bounding box of vehicle: xmin -12.2 -1.30008 -6.44084e-18, xmax 6.64751e-18 1.30008 3.6m 
gts area: 163.426 
yplus max: 130.544, yplus min: 0.0246076 
position of yplus max: -12.0304 -1.28988 1.94884 
yplus prom: 3.09075 
forces: 2852.381161 -0.000046 -869.244836 
Drag coefficient: 0.796011 
Lateral coefficient: -0.000000 
Lift coefficient: -0.242579 
torque (ref. CG): 0.000064 (roll) -1309.059875 (pitch) 0.000279 (yaw) 
----------------------------------------------------- 
step 55, time 0.044000, maxvel 3.000000, total vol 183257, vol(u>maxvel) 183256, cell count 45902042
bounding box (containing cells with vel>maxvel): xmin -37.5001 -17.7002 -0.50396, xmax 116.7 17.7002 32.1087m 
bounding box of vehicle: xmin -12.2 -1.30008 -6.44084e-18, xmax 6.64751e-18 1.30008 3.6m 
gts area: 163.426 
yplus max: 130.534, yplus min: 0.0241124 
position of yplus max: -12.0304 -1.28988 1.94884 
yplus prom: 3.09017 
forces: 2842.102516 -0.000250 -868.804563 
Drag coefficient: 0.793142 
Lateral coefficient: -0.000000 
Lift coefficient: -0.242456 
torque (ref. CG): 0.000349 (roll) -1320.764309 (pitch) 0.001523 (yaw) 
----------------------------------------------------- 
step 56, time 0.044800, maxvel 3.000000, total vol 183257, vol(u>maxvel) 183256, cell count 45908294
bounding box (containing cells with vel>maxvel): xmin -37.5001 -17.7002 -0.50396, xmax 116.7 17.7002 32.1087m 
bounding box of vehicle: xmin -12.2 -1.30008 -6.44084e-18, xmax 6.64751e-18 1.30008 3.6m 
gts area: 163.426 
yplus max: 130.525, yplus min: 0.0236302 
position of yplus max: -12.0304 -1.28988 1.94884 
yplus prom: 3.08953 
forces: 2831.927437 -0.000549 -868.337526 
Drag coefficient: 0.790303 
Lateral coefficient: -0.000000 
Lift coefficient: -0.242326 
torque (ref. CG): 0.000769 (roll) -1332.160499 (pitch) 0.003349 (yaw) 
----------------------------------------------------- 
step 57, time 0.045600, maxvel 3.000000, total vol 183257, vol(u>maxvel) 183256, cell count 45912796
bounding box (containing cells with vel>maxvel): xmin -37.5001 -17.7002 -0.50396, xmax 116.7 17.7002 32.1087m 
bounding box of vehicle: xmin -12.2 -1.30008 -6.44084e-18, xmax 6.64751e-18 1.30008 3.6m 
gts area: 163.426 
yplus max: 130.516, yplus min: 0.0231695 
position of yplus max: -12.0304 -1.28988 1.94884 
yplus prom: 3.08887 
forces: 2821.819337 -0.001388 -867.839859 
Drag coefficient: 0.787482 
Lateral coefficient: -0.000000 
Lift coefficient: -0.242187 
torque (ref. CG): 0.001944 (roll) -1343.276069 (pitch) 0.008469 (yaw) 
----------------------------------------------------- 
step 58, time 0.046400, maxvel 3.000000, total vol 183257, vol(u>maxvel) 183256, cell count 45918359
bounding box (containing cells with vel>maxvel): xmin -37.5001 -17.7002 -0.50396, xmax 116.7 17.7002 32.1087m 
bounding box of vehicle: xmin -12.2 -1.30008 -6.44084e-18, xmax 6.64751e-18 1.30008 3.6m 
gts area: 163.426 
yplus max: 130.508, yplus min: 0.0189255 
position of yplus max: -12.0304 -1.28988 1.94884 
yplus prom: 3.08816 
forces: 2811.879196 -0.002668 -867.321288 
Drag coefficient: 0.784708 
Lateral coefficient: -0.000001 
Lift coefficient: -0.242042 
torque (ref. CG): 0.003736 (roll) -1354.028984 (pitch) 0.016277 (yaw) 
----------------------------------------------------- 
step 59, time 0.047200, maxvel 3.000000, total vol 183257, vol(u>maxvel) 183256, cell count 45923415
bounding box (containing cells with vel>maxvel): xmin -37.5001 -17.7002 -0.50396, xmax 116.7 17.7002 32.1087m 
bounding box of vehicle: xmin -12.2 -1.30008 -6.44084e-18, xmax 6.64751e-18 1.30008 3.6m 
gts area: 163.426 
yplus max: 130.5, yplus min: 0.0223338 
position of yplus max: -12.0304 -1.28988 1.94884 
yplus prom: 3.0874 
forces: 2802.107228 -0.001493 -866.766854 
Drag coefficient: 0.781981 
Lateral coefficient: -0.000000 
Lift coefficient: -0.241888 
torque (ref. CG): 0.002091 (roll) -1364.327687 (pitch) 0.009110 (yaw) 
----------------------------------------------------- 
step 60, time 0.048000, maxvel 3.000000, total vol 183257, vol(u>maxvel) 183256, cell count 45927941
bounding box (containing cells with vel>maxvel): xmin -37.5001 -17.7002 -0.50396, xmax 116.7 17.7002 32.1087m 
bounding box of vehicle: xmin -12.2 -1.30008 -6.44084e-18, xmax 6.64751e-18 1.30008 3.6m 
gts area: 163.426 
yplus max: 130.492, yplus min: 0.0219798 
position of yplus max: -12.0304 -1.28988 1.94884 
yplus prom: 3.08661 
forces: 2792.491898 -0.002520 -866.199029 
Drag coefficient: 0.779298 
Lateral coefficient: -0.000001 
Lift coefficient: -0.241729 
torque (ref. CG): 0.003528 (roll) -1374.325418 (pitch) 0.015371 (yaw) 
----------------------------------------------------- 
step 61, time 0.048800, maxvel 3.000000, total vol 183257, vol(u>maxvel) 183256, cell count 45932902
bounding box (containing cells with vel>maxvel): xmin -37.5001 -17.7002 -0.50396, xmax 116.7 17.7002 32.1087m 
bounding box of vehicle: xmin -12.2 -1.30008 -6.44084e-18, xmax 6.64751e-18 1.30008 3.6m 
gts area: 163.426 
yplus max: 130.485, yplus min: 0.0216665 
position of yplus max: -12.0304 -1.28988 1.94884 
yplus prom: 3.08577 
forces: 2782.955186 -0.003098 -865.621467 
Drag coefficient: 0.776636 
Lateral coefficient: -0.000001 
Lift coefficient: -0.241568 
torque (ref. CG): 0.004337 (roll) -1384.153691 (pitch) 0.018897 (yaw) 
----------------------------------------------------- 
step 62, time 0.049600, maxvel 3.000000, total vol 183257, vol(u>maxvel) 183256, cell count 45939503
bounding box (containing cells with vel>maxvel): xmin -37.5001 -17.7002 -0.50396, xmax 116.7 17.7002 32.1087m 
bounding box of vehicle: xmin -12.2 -1.30008 -6.44084e-18, xmax 6.64751e-18 1.30008 3.6m 
gts area: 163.426 
yplus max: 130.477, yplus min: 0.0214122 
position of yplus max: -12.0304 -1.28988 1.94884 
yplus prom: 3.0849 
forces: 2773.549192 -0.003828 -865.053299 
Drag coefficient: 0.774011 
Lateral coefficient: -0.000001 
Lift coefficient: -0.241409 
torque (ref. CG): 0.005359 (roll) -1393.856256 (pitch) 0.023348 (yaw) 
----------------------------------------------------- 
step 63, time 0.050400, maxvel 3.000000, total vol 183257, vol(u>maxvel) 183256, cell count 45945317
bounding box (containing cells with vel>maxvel): xmin -37.5001 -17.7002 -0.50396, xmax 116.7 17.7002 32.1087m 
bounding box of vehicle: xmin -12.2 -1.30008 -6.44084e-18, xmax 6.64751e-18 1.30008 3.6m 
gts area: 163.426 
yplus max: 130.47, yplus min: 0.0212169 
position of yplus max: -12.0304 -1.28988 1.94884 
yplus prom: 3.084 
forces: 2764.259109 -0.004356 -864.471201 
Drag coefficient: 0.771419 
Lateral coefficient: -0.000001 
Lift coefficient: -0.241247 
torque (ref. CG): 0.006099 (roll) -1403.311574 (pitch) 0.026573 (yaw) 
----------------------------------------------------- 
step 64, time 0.051200, maxvel 3.000000, total vol 183257, vol(u>maxvel) 183256, cell count 45951025
bounding box (containing cells with vel>maxvel): xmin -37.5001 -17.7002 -0.50396, xmax 116.7 17.7002 32.1087m 
bounding box of vehicle: xmin -12.2 -1.30008 -6.44084e-18, xmax 6.64751e-18 1.30008 3.6m 
gts area: 163.426 
yplus max: 130.464, yplus min: 0.0210956 
position of yplus max: -12.0304 -1.28988 1.94884 
yplus prom: 3.08307 
forces: 2755.095971 -0.005637 -863.875842 
Drag coefficient: 0.768861 
Lateral coefficient: -0.000002 
Lift coefficient: -0.241081 
torque (ref. CG): 0.007891 (roll) -1412.508278 (pitch) 0.034383 (yaw) 
----------------------------------------------------- 
step 65, time 0.052000, maxvel 3.000000, total vol 183257, vol(u>maxvel) 183256, cell count 45956827
bounding box (containing cells with vel>maxvel): xmin -37.5001 -17.7002 -0.50396, xmax 116.7 17.7002 32.1087m 
bounding box of vehicle: xmin -12.2 -1.30008 -6.44084e-18, xmax 6.64751e-18 1.30008 3.6m 
gts area: 163.426 
yplus max: 130.457, yplus min: 0.021048 
position of yplus max: -12.0304 -1.28988 1.94884 
yplus prom: 3.08213 
forces: 2746.095321 -0.006003 -863.256916 
Drag coefficient: 0.766350 
Lateral coefficient: -0.000002 
Lift coefficient: -0.240908 
torque (ref. CG): 0.008404 (roll) -1421.333739 (pitch) 0.036618 (yaw) 
----------------------------------------------------- 
step 66, time 0.052800, maxvel 3.000000, total vol 183257, vol(u>maxvel) 183256, cell count 45961961
bounding box (containing cells with vel>maxvel): xmin -37.5001 -17.7002 -0.50396, xmax 116.7 17.7002 32.1087m 
bounding box of vehicle: xmin -12.2 -1.30008 -6.44084e-18, xmax 6.64751e-18 1.30008 3.6m 
gts area: 163.426 
yplus max: 130.451, yplus min: 0.0210718 
position of yplus max: -12.0304 -1.28988 1.94884 
yplus prom: 3.08116 
forces: 2737.204246 -0.007195 -862.614371 
Drag coefficient: 0.763868 
Lateral coefficient: -0.000002 
Lift coefficient: -0.240729 
torque (ref. CG): 0.010072 (roll) -1429.861719 (pitch) 0.043887 (yaw) 
----------------------------------------------------- 
step 67, time 0.053600, maxvel 3.000000, total vol 183257, vol(u>maxvel) 183256, cell count 45967568
bounding box (containing cells with vel>maxvel): xmin -37.5001 -17.7002 -0.50396, xmax 116.7 17.7002 32.1087m 
bounding box of vehicle: xmin -12.2 -1.30008 -6.44084e-18, xmax 6.64751e-18 1.30008 3.6m 
gts area: 163.426 
yplus max: 130.445, yplus min: 0.0211779 
position of yplus max: -12.0304 -1.28988 1.94884 
yplus prom: 3.08018 
forces: 2728.407547 -0.007820 -861.969016 
Drag coefficient: 0.761414 
Lateral coefficient: -0.000002 
Lift coefficient: -0.240549 
torque (ref. CG): 0.010949 (roll) -1438.240431 (pitch) 0.047704 (yaw) 
----------------------------------------------------- 
step 68, time 0.054400, maxvel 3.000000, total vol 183257, vol(u>maxvel) 183256, cell count 45972807
bounding box (containing cells with vel>maxvel): xmin -37.5001 -17.7002 -0.50396, xmax 116.7 17.7002 32.1087m 
bounding box of vehicle: xmin -12.2 -1.30008 -6.44084e-18, xmax 6.64751e-18 1.30008 3.6m 
gts area: 163.426 
yplus max: 130.44, yplus min: 0.0213425 
position of yplus max: -12.0304 -1.28988 1.94884 
yplus prom: 3.07918 
forces: 2719.708949 -0.008389 -861.322197 
Drag coefficient: 0.758986 
Lateral coefficient: -0.000002 
Lift coefficient: -0.240368 
torque (ref. CG): 0.011744 (roll) -1446.472870 (pitch) 0.051172 (yaw) 
----------------------------------------------------- 
step 69, time 0.055200, maxvel 3.000000, total vol 183257, vol(u>maxvel) 183256, cell count 45978030
bounding box (containing cells with vel>maxvel): xmin -37.5001 -17.7002 -0.50396, xmax 116.7 17.7002 32.1087m 
bounding box of vehicle: xmin -12.2 -1.30008 -6.44084e-18, xmax 6.64751e-18 1.30008 3.6m 
gts area: 163.426 
yplus max: 130.434, yplus min: 0.0215503 
position of yplus max: -12.0304 -1.28988 1.94884 
yplus prom: 3.07817 
forces: 2711.147581 -0.009497 -860.667663 
Drag coefficient: 0.756597 
Lateral coefficient: -0.000003 
Lift coefficient: -0.240186 
torque (ref. CG): 0.013295 (roll) -1454.466128 (pitch) 0.057930 (yaw) 
----------------------------------------------------- 
step 70, time 0.056000, maxvel 3.000000, total vol 183257, vol(u>maxvel) 183256, cell count 45983073
bounding box (containing cells with vel>maxvel): xmin -37.5001 -17.7002 -0.50396, xmax 116.7 17.7002 32.1087m 
bounding box of vehicle: xmin -12.2 -1.30008 -6.44084e-18, xmax 6.64751e-18 1.30008 3.6m 
gts area: 163.426 
yplus max: 130.429, yplus min: 0.0218208 
position of yplus max: -12.0304 -1.28988 1.94884 
yplus prom: 3.07714 
forces: 2702.722636 -0.010183 -860.022347 
Drag coefficient: 0.754246 
Lateral coefficient: -0.000003 
Lift coefficient: -0.240005 
torque (ref. CG): 0.014256 (roll) -1462.324628 (pitch) 0.062116 (yaw) 
----------------------------------------------------- 
step 71, time 0.056800, maxvel 3.000000, total vol 183257, vol(u>maxvel) 183256, cell count 45987691
bounding box (containing cells with vel>maxvel): xmin -37.5001 -17.7002 -0.50396, xmax 116.7 17.7002 32.1087m 
bounding box of vehicle: xmin -12.2 -1.30008 -6.44084e-18, xmax 6.64751e-18 1.30008 3.6m 
gts area: 163.426 
yplus max: 130.424, yplus min: 0.0221506 
position of yplus max: -12.0304 -1.28988 1.94884 
yplus prom: 3.07611 
forces: 2694.428560 -0.011290 -859.387499 
Drag coefficient: 0.751931 
Lateral coefficient: -0.000003 
Lift coefficient: -0.239828 
torque (ref. CG): 0.015806 (roll) -1470.063761 (pitch) 0.068868 (yaw) 
----------------------------------------------------- 
step 72, time 0.057600, maxvel 3.000000, total vol 183257, vol(u>maxvel) 183256, cell count 45992140
bounding box (containing cells with vel>maxvel): xmin -37.5001 -17.7002 -0.50396, xmax 116.7 17.7002 32.1087m 
bounding box of vehicle: xmin -12.2 -1.30008 -6.44084e-18, xmax 6.64751e-18 1.30008 3.6m 
gts area: 163.426 
yplus max: 130.419, yplus min: 0.0225337 
position of yplus max: -12.0304 -1.28988 1.94884 
yplus prom: 3.07506 
forces: 2686.251234 -0.012064 -858.753389 
Drag coefficient: 0.749649 
Lateral coefficient: -0.000003 
Lift coefficient: -0.239651 
torque (ref. CG): 0.016889 (roll) -1477.643945 (pitch) 0.073589 (yaw) 
----------------------------------------------------- 
step 73, time 0.058400, maxvel 3.000000, total vol 183257, vol(u>maxvel) 183256, cell count 45996595
bounding box (containing cells with vel>maxvel): xmin -37.5001 -17.7002 -0.50396, xmax 116.7 17.7002 32.1087m 
bounding box of vehicle: xmin -12.2 -1.30008 -6.44084e-18, xmax 6.64751e-18 1.30008 3.6m 
gts area: 163.426 
yplus max: 130.414, yplus min: 0.0229554 
position of yplus max: -12.0304 -1.28988 1.94884 
yplus prom: 3.074 
forces: 2678.159590 -0.013917 -858.129846 
Drag coefficient: 0.747391 
Lateral coefficient: -0.000004 
Lift coefficient: -0.239477 
torque (ref. CG): 0.019484 (roll) -1485.168637 (pitch) 0.084895 (yaw) 
----------------------------------------------------- 
step 74, time 0.059200, maxvel 3.000000, total vol 183257, vol(u>maxvel) 183256, cell count 46000660
bounding box (containing cells with vel>maxvel): xmin -37.5001 -17.7002 -0.50396, xmax 116.7 17.7002 32.1087m 
bounding box of vehicle: xmin -12.2 -1.30008 -6.44084e-18, xmax 6.64751e-18 1.30008 3.6m 
gts area: 163.426 
yplus max: 130.409, yplus min: 0.0234133 
position of yplus max: -12.0304 -1.28988 1.94884 
yplus prom: 3.07293 
forces: 2670.179788 -0.014391 -857.473131 
Drag coefficient: 0.745164 
Lateral coefficient: -0.000004 
Lift coefficient: -0.239294 
torque (ref. CG): 0.020147 (roll) -1492.334394 (pitch) 0.087783 (yaw) 
----------------------------------------------------- 
step 75, time 0.060000, maxvel 3.000000, total vol 183257, vol(u>maxvel) 183256, cell count 46004633
bounding box (containing cells with vel>maxvel): xmin -37.5001 -17.7002 -0.50396, xmax 116.7 17.7002 32.1087m 
bounding box of vehicle: xmin -12.2 -1.30008 -6.44084e-18, xmax 6.64751e-18 1.30008 3.6m 
gts area: 163.426 
yplus max: 130.405, yplus min: 0.023914 
position of yplus max: -12.0304 -1.28988 1.94884 
yplus prom: 3.07184 
forces: 2662.291292 -0.019388 -856.855031 
Drag coefficient: 0.742963 
Lateral coefficient: -0.000005 
Lift coefficient: -0.239122 
torque (ref. CG): 0.027143 (roll) -1499.607883 (pitch) 0.118265 (yaw) 
----------------------------------------------------- 
step 76, time 0.060800, maxvel 3.000000, total vol 183257, vol(u>maxvel) 183256, cell count 46008754
bounding box (containing cells with vel>maxvel): xmin -37.5001 -17.7002 -0.50396, xmax 116.7 17.7002 32.1087m 
bounding box of vehicle: xmin -12.2 -1.30008 -6.44084e-18, xmax 6.64751e-18 1.30008 3.6m 
gts area: 163.426 
yplus max: 130.4, yplus min: 0.0244162 
position of yplus max: -12.0304 -1.28988 1.94884 
yplus prom: 3.07073 
forces: 2654.501137 -0.014509 -856.187548 
Drag coefficient: 0.740789 
Lateral coefficient: -0.000004 
Lift coefficient: -0.238935 
torque (ref. CG): 0.020313 (roll) -1506.442451 (pitch) 0.088505 (yaw) 
----------------------------------------------------- 
step 77, time 0.061600, maxvel 3.000000, total vol 183257, vol(u>maxvel) 183256, cell count 46013514
bounding box (containing cells with vel>maxvel): xmin -37.5001 -17.7002 -0.50396, xmax 116.7 17.7002 32.1087m 
bounding box of vehicle: xmin -12.2 -1.30008 -6.44084e-18, xmax 6.64751e-18 1.30008 3.6m 
gts area: 163.426 
yplus max: 130.396, yplus min: 0.0249592 
position of yplus max: -12.0304 -1.28988 1.94884 
yplus prom: 3.06962 
forces: 2646.835707 -0.019240 -855.556674 
Drag coefficient: 0.738649 
Lateral coefficient: -0.000005 
Lift coefficient: -0.238759 
torque (ref. CG): 0.026936 (roll) -1513.325723 (pitch) 0.117363 (yaw) 
----------------------------------------------------- 
step 78, time 0.062400, maxvel 3.000000, total vol 183257, vol(u>maxvel) 183256, cell count 46017556
bounding box (containing cells with vel>maxvel): xmin -37.5001 -17.7002 -0.50396, xmax 116.7 17.7002 32.1087m 
bounding box of vehicle: xmin -12.2 -1.30008 -6.44084e-18, xmax 6.64751e-18 1.30008 3.6m 
gts area: 163.426 
yplus max: 130.392, yplus min: 0.0255063 
position of yplus max: -12.0304 -1.28988 1.94884 
yplus prom: 3.06849 
forces: 2639.228156 -0.015135 -854.902129 
Drag coefficient: 0.736526 
Lateral coefficient: -0.000004 
Lift coefficient: -0.238577 
torque (ref. CG): 0.021189 (roll) -1519.983569 (pitch) 0.092325 (yaw) 
----------------------------------------------------- 
step 79, time 0.063200, maxvel 3.000000, total vol 183257, vol(u>maxvel) 183256, cell count 46022048
bounding box (containing cells with vel>maxvel): xmin -37.5001 -17.7002 -0.50396, xmax 116.7 17.7002 32.1087m 
bounding box of vehicle: xmin -12.2 -1.30008 -6.44084e-18, xmax 6.64751e-18 1.30008 3.6m 
gts area: 163.426 
yplus max: 130.388, yplus min: 0.0260723 
position of yplus max: -12.0304 -1.28988 1.94884 
yplus prom: 3.06735 
forces: 2631.718434 -0.027811 -854.260224 
Drag coefficient: 0.734431 
Lateral coefficient: -0.000008 
Lift coefficient: -0.238397 
torque (ref. CG): 0.038936 (roll) -1526.581558 (pitch) 0.169650 (yaw) 
----------------------------------------------------- 
step 80, time 0.064000, maxvel 3.000000, total vol 183257, vol(u>maxvel) 183256, cell count 46025919
bounding box (containing cells with vel>maxvel): xmin -37.5001 -17.7002 -0.50396, xmax 116.7 17.7002 32.1087m 
bounding box of vehicle: xmin -12.2 -1.30008 -6.44084e-18, xmax 6.64751e-18 1.30008 3.6m 
gts area: 163.426 
yplus max: 130.384, yplus min: 0.0266311 
position of yplus max: -12.0304 -1.28988 1.94884 
yplus prom: 3.06619 
forces: 2624.241377 -0.020427 -853.601532 
Drag coefficient: 0.732344 
Lateral coefficient: -0.000006 
Lift coefficient: -0.238214 
torque (ref. CG): 0.028598 (roll) -1533.031416 (pitch) 0.124604 (yaw) 
----------------------------------------------------- 
step 81, time 0.064800, maxvel 3.000000, total vol 183257, vol(u>maxvel) 183256, cell count 46029255
bounding box (containing cells with vel>maxvel): xmin -37.5001 -17.7002 -0.50396, xmax 116.7 17.7002 32.1087m 
bounding box of vehicle: xmin -12.2 -1.30008 -6.44084e-18, xmax 6.64751e-18 1.30008 3.6m 
gts area: 163.426 
yplus max: 130.38, yplus min: 0.0272072 
position of yplus max: -12.0304 -1.28988 1.94884 
yplus prom: 3.06503 
forces: 2616.843689 -0.024214 -852.928771 
Drag coefficient: 0.730280 
Lateral coefficient: -0.000007 
Lift coefficient: -0.238026 
torque (ref. CG): 0.033900 (roll) -1539.284340 (pitch) 0.147706 (yaw) 
----------------------------------------------------- 
step 82, time 0.065600, maxvel 3.000000, total vol 183257, vol(u>maxvel) 183256, cell count 46032611
bounding box (containing cells with vel>maxvel): xmin -37.5001 -17.7002 -0.50396, xmax 116.7 17.7002 32.1087m 
bounding box of vehicle: xmin -12.2 -1.30008 -6.44084e-18, xmax 6.64751e-18 1.30008 3.6m 
gts area: 163.426 
yplus max: 130.377, yplus min: 0.0277894 
position of yplus max: -12.0304 -1.28988 1.94884 
yplus prom: 3.06385 
forces: 2609.510748 -0.026185 -852.270115 
Drag coefficient: 0.728233 
Lateral coefficient: -0.000007 
Lift coefficient: -0.237842 
torque (ref. CG): 0.036658 (roll) -1545.532653 (pitch) 0.159726 (yaw) 
----------------------------------------------------- 
step 83, time 0.066400, maxvel 3.000000, total vol 183257, vol(u>maxvel) 183256, cell count 46036237
bounding box (containing cells with vel>maxvel): xmin -37.5001 -17.7002 -0.50396, xmax 116.7 17.7002 32.1087m 
bounding box of vehicle: xmin -12.2 -1.30008 -6.44084e-18, xmax 6.64751e-18 1.30008 3.6m 
gts area: 163.426 
yplus max: 130.373, yplus min: 0.0283671 
position of yplus max: -12.0304 -1.28988 1.94884 
yplus prom: 3.06267 
forces: 2602.259604 -0.028399 -851.599989 
Drag coefficient: 0.726210 
Lateral coefficient: -0.000008 
Lift coefficient: -0.237655 
torque (ref. CG): 0.039758 (roll) -1551.596487 (pitch) 0.173233 (yaw) 
----------------------------------------------------- 
step 84, time 0.067200, maxvel 3.000000, total vol 183257, vol(u>maxvel) 183256, cell count 46039663
bounding box (containing cells with vel>maxvel): xmin -37.5001 -17.7002 -0.50396, xmax 116.7 17.7002 32.1087m 
bounding box of vehicle: xmin -12.2 -1.30008 -6.44084e-18, xmax 6.64751e-18 1.30008 3.6m 
gts area: 163.426 
yplus max: 130.37, yplus min: 0.0289347 
position of yplus max: -12.0304 -1.28988 1.94884 
yplus prom: 3.06148 
forces: 2595.068555 -0.027314 -850.914924 
Drag coefficient: 0.724203 
Lateral coefficient: -0.000008 
Lift coefficient: -0.237464 
torque (ref. CG): 0.038239 (roll) -1557.485060 (pitch) 0.166613 (yaw) 
----------------------------------------------------- 
step 85, time 0.068000, maxvel 3.000000, total vol 183257, vol(u>maxvel) 183256, cell count 46042548
bounding box (containing cells with vel>maxvel): xmin -37.5001 -17.7002 -0.50396, xmax 116.7 17.7002 32.1087m 
bounding box of vehicle: xmin -12.2 -1.30008 -6.44084e-18, xmax 6.64751e-18 1.30008 3.6m 
gts area: 163.426 
yplus max: 130.366, yplus min: 0.0295236 
position of yplus max: -12.0304 -1.28988 1.94884 
yplus prom: 3.06028 
forces: 2587.959685 -0.030439 -850.235769 
Drag coefficient: 0.722219 
Lateral coefficient: -0.000008 
Lift coefficient: -0.237274 
torque (ref. CG): 0.042615 (roll) -1563.294631 (pitch) 0.185679 (yaw) 
----------------------------------------------------- 
step 86, time 0.068800, maxvel 3.000000, total vol 183257, vol(u>maxvel) 183256, cell count 46045651
bounding box (containing cells with vel>maxvel): xmin -37.5001 -17.7002 -0.50396, xmax 116.7 17.7002 32.1087m 
bounding box of vehicle: xmin -12.2 -1.30008 -6.44084e-18, xmax 6.64751e-18 1.30008 3.6m 
gts area: 163.426 
yplus max: 130.363, yplus min: 0.0300958 
position of yplus max: -12.0304 -1.28988 1.94884 
yplus prom: 3.05907 
forces: 2580.930017 -0.034342 -849.549452 
Drag coefficient: 0.720257 
Lateral coefficient: -0.000010 
Lift coefficient: -0.237083 
torque (ref. CG): 0.048079 (roll) -1568.949631 (pitch) 0.209485 (yaw) 
----------------------------------------------------- 
step 87, time 0.069600, maxvel 3.000000, total vol 183257, vol(u>maxvel) 183256, cell count 46048546
bounding box (containing cells with vel>maxvel): xmin -37.5001 -17.7002 -0.50396, xmax 116.7 17.7002 32.1087m 
bounding box of vehicle: xmin -12.2 -1.30008 -6.44084e-18, xmax 6.64751e-18 1.30008 3.6m 
gts area: 163.426 
yplus max: 130.36, yplus min: 0.0296181 
position of yplus max: -12.0304 -1.28988 1.94884 
yplus prom: 3.05786 
forces: 2573.965390 -0.035133 -848.847657 
Drag coefficient: 0.718314 
Lateral coefficient: -0.000010 
Lift coefficient: -0.236887 
torque (ref. CG): 0.049187 (roll) -1574.419162 (pitch) 0.214314 (yaw) 
----------------------------------------------------- 
step 88, time 0.070400, maxvel 3.000000, total vol 183257, vol(u>maxvel) 183256, cell count 46051954
bounding box (containing cells with vel>maxvel): xmin -37.5001 -17.7002 -0.50396, xmax 116.7 17.7002 32.1087m 
bounding box of vehicle: xmin -12.2 -1.30008 -6.44084e-18, xmax 6.64751e-18 1.30008 3.6m 
gts area: 163.426 
yplus max: 130.357, yplus min: 0.0290634 
position of yplus max: -12.0304 -1.28988 1.94884 
yplus prom: 3.05665 
forces: 2567.089577 -0.036549 -848.141167 
Drag coefficient: 0.716395 
Lateral coefficient: -0.000010 
Lift coefficient: -0.236690 
torque (ref. CG): 0.051169 (roll) -1579.735711 (pitch) 0.222949 (yaw) 
----------------------------------------------------- 
step 89, time 0.071200, maxvel 3.000000, total vol 183257, vol(u>maxvel) 183256, cell count 46055313
bounding box (containing cells with vel>maxvel): xmin -37.5001 -17.7002 -0.50396, xmax 116.7 17.7002 32.1087m 
bounding box of vehicle: xmin -12.2 -1.30008 -6.44084e-18, xmax 6.64751e-18 1.30008 3.6m 
gts area: 163.426 
yplus max: 130.354, yplus min: 0.0286529 
position of yplus max: -12.0304 -1.28988 1.94884 
yplus prom: 3.05543 
forces: 2560.267545 -0.038393 -847.431928 
Drag coefficient: 0.714491 
Lateral coefficient: -0.000011 
Lift coefficient: -0.236492 
torque (ref. CG): 0.053750 (roll) -1584.960201 (pitch) 0.234194 (yaw) 
----------------------------------------------------- 
step 90, time 0.072000, maxvel 3.000000, total vol 183257, vol(u>maxvel) 183256, cell count 46058564
bounding box (containing cells with vel>maxvel): xmin -37.5001 -17.7002 -0.50396, xmax 116.7 17.7002 32.1087m 
bounding box of vehicle: xmin -12.2 -1.30008 -6.44084e-18, xmax 6.64751e-18 1.30008 3.6m 
gts area: 163.426 
yplus max: 130.351, yplus min: 0.028403 
position of yplus max: -12.0304 -1.28988 1.94884 
yplus prom: 3.0542 
forces: 2553.505473 -0.039284 -846.704459 
Drag coefficient: 0.712604 
Lateral coefficient: -0.000011 
Lift coefficient: -0.236289 
torque (ref. CG): 0.054998 (roll) -1589.989536 (pitch) 0.239635 (yaw) 
----------------------------------------------------- 
step 91, time 0.072800, maxvel 3.000000, total vol 183257, vol(u>maxvel) 183256, cell count 46061813
bounding box (containing cells with vel>maxvel): xmin -37.5001 -17.7002 -0.50396, xmax 116.7 17.7002 32.1087m 
bounding box of vehicle: xmin -12.2 -1.30008 -6.44084e-18, xmax 6.64751e-18 1.30008 3.6m 
gts area: 163.426 
yplus max: 130.348, yplus min: 0.0283466 
position of yplus max: -12.0304 -1.28988 1.94884 
yplus prom: 3.05298 
forces: 2546.786962 -0.041231 -845.971786 
Drag coefficient: 0.710729 
Lateral coefficient: -0.000012 
Lift coefficient: -0.236084 
torque (ref. CG): 0.057723 (roll) -1594.926148 (pitch) 0.251506 (yaw) 
----------------------------------------------------- 
step 92, time 0.073600, maxvel 3.000000, total vol 183257, vol(u>maxvel) 183256, cell count 46065254
bounding box (containing cells with vel>maxvel): xmin -37.5001 -17.7002 -0.50396, xmax 116.7 17.7002 32.1087m 
bounding box of vehicle: xmin -12.2 -1.30008 -6.44084e-18, xmax 6.64751e-18 1.30008 3.6m 
gts area: 163.426 
yplus max: 130.345, yplus min: 0.0149352 
position of yplus max: -12.0304 -1.28988 1.94884 
yplus prom: 3.05176 
forces: 2540.131857 -0.041815 -845.222592 
Drag coefficient: 0.708872 
Lateral coefficient: -0.000012 
Lift coefficient: -0.235875 
torque (ref. CG): 0.058541 (roll) -1599.673213 (pitch) 0.255073 (yaw) 
----------------------------------------------------- 
step 93, time 0.074400, maxvel 3.000000, total vol 183257, vol(u>maxvel) 183256, cell count 46068203
bounding box (containing cells with vel>maxvel): xmin -37.5001 -17.7002 -0.50396, xmax 116.7 17.7002 32.1087m 
bounding box of vehicle: xmin -12.2 -1.30008 -6.44084e-18, xmax 6.64751e-18 1.30008 3.6m 
gts area: 163.426 
yplus max: 130.342, yplus min: 0.0178976 
position of yplus max: -12.0304 -1.28988 1.94884 
yplus prom: 3.05054 
forces: 2533.537446 -0.044233 -844.447212 
Drag coefficient: 0.707031 
Lateral coefficient: -0.000012 
Lift coefficient: -0.235659 
torque (ref. CG): 0.061926 (roll) -1604.175569 (pitch) 0.269819 (yaw) 
----------------------------------------------------- 
step 94, time 0.075200, maxvel 3.000000, total vol 183257, vol(u>maxvel) 183256, cell count 46071597
bounding box (containing cells with vel>maxvel): xmin -37.5001 -17.7002 -0.50396, xmax 116.7 17.7002 32.1087m 
bounding box of vehicle: xmin -12.2 -1.30008 -6.44084e-18, xmax 6.64751e-18 1.30008 3.6m 
gts area: 163.426 
yplus max: 130.34, yplus min: 0.0291686 
position of yplus max: -12.0304 -1.28988 1.94884 
yplus prom: 3.04933 
forces: 2527.000362 -0.044959 -843.665181 
Drag coefficient: 0.705207 
Lateral coefficient: -0.000013 
Lift coefficient: -0.235441 
torque (ref. CG): 0.062943 (roll) -1608.557100 (pitch) 0.274250 (yaw) 
----------------------------------------------------- 
step 95, time 0.076000, maxvel 3.000000, total vol 183257, vol(u>maxvel) 183256, cell count 46075064
bounding box (containing cells with vel>maxvel): xmin -37.5001 -17.7002 -0.50396, xmax 116.7 17.7002 32.1087m 
bounding box of vehicle: xmin -12.2 -1.30008 -6.44084e-18, xmax 6.64751e-18 1.30008 3.6m 
gts area: 163.426 
yplus max: 130.337, yplus min: 0.0297477 
position of yplus max: -12.0304 -1.28988 1.94884 
yplus prom: 3.04812 
forces: 2520.521719 -0.046553 -842.863819 
Drag coefficient: 0.703399 
Lateral coefficient: -0.000013 
Lift coefficient: -0.235217 
torque (ref. CG): 0.065174 (roll) -1612.738886 (pitch) 0.283973 (yaw) 
----------------------------------------------------- 
step 96, time 0.076800, maxvel 3.000000, total vol 183257, vol(u>maxvel) 183256, cell count 46078003
bounding box (containing cells with vel>maxvel): xmin -37.5001 -17.7002 -0.50396, xmax 116.7 17.7002 32.1087m 
bounding box of vehicle: xmin -12.2 -1.30008 -6.44084e-18, xmax 6.64751e-18 1.30008 3.6m 
gts area: 163.426 
yplus max: 130.334, yplus min: 0.0304266 
position of yplus max: -12.0304 -1.28988 1.94884 
yplus prom: 3.04691 
forces: 2514.113631 -0.047284 -842.040253 
Drag coefficient: 0.701611 
Lateral coefficient: -0.000013 
Lift coefficient: -0.234987 
torque (ref. CG): 0.066198 (roll) -1616.686457 (pitch) 0.288432 (yaw) 
----------------------------------------------------- 
step 97, time 0.077600, maxvel 3.000000, total vol 183257, vol(u>maxvel) 183256, cell count 46080661
bounding box (containing cells with vel>maxvel): xmin -37.5001 -17.7002 -0.50396, xmax 116.7 17.7002 32.1087m 
bounding box of vehicle: xmin -12.2 -1.30008 -6.44084e-18, xmax 6.64751e-18 1.30008 3.6m 
gts area: 163.426 
yplus max: 130.332, yplus min: 0.031249 
position of yplus max: -12.0304 -1.28988 1.94884 
yplus prom: 3.04572 
forces: 2507.769171 -0.048018 -841.191764 
Drag coefficient: 0.699840 
Lateral coefficient: -0.000013 
Lift coefficient: -0.234750 
torque (ref. CG): 0.067226 (roll) -1620.392919 (pitch) 0.292911 (yaw) 
----------------------------------------------------- 
step 98, time 0.078400, maxvel 3.000000, total vol 183257, vol(u>maxvel) 183256, cell count 46083504
bounding box (containing cells with vel>maxvel): xmin -37.5001 -17.7002 -0.50396, xmax 116.7 17.7002 32.1087m 
bounding box of vehicle: xmin -12.2 -1.30008 -6.44084e-18, xmax 6.64751e-18 1.30008 3.6m 
gts area: 163.426 
yplus max: 130.329, yplus min: 0.0321364 
position of yplus max: -12.0304 -1.28988 1.94884 
yplus prom: 3.04453 
forces: 2501.502743 -0.048958 -840.336693 
Drag coefficient: 0.698092 
Lateral coefficient: -0.000014 
Lift coefficient: -0.234512 
torque (ref. CG): 0.068541 (roll) -1623.949987 (pitch) 0.298643 (yaw) 
----------------------------------------------------- 
step 99, time 0.079200, maxvel 3.000000, total vol 183257, vol(u>maxvel) 183256, cell count 46086290
bounding box (containing cells with vel>maxvel): xmin -37.5001 -17.7002 -0.50396, xmax 116.7 17.7002 32.1087m 
bounding box of vehicle: xmin -12.2 -1.30008 -6.44084e-18, xmax 6.64751e-18 1.30008 3.6m 
gts area: 163.426 
yplus max: 130.327, yplus min: 0.0330727 
position of yplus max: -12.0304 -1.28988 1.94884 
yplus prom: 3.04335 
forces: 2495.294555 -0.050082 -839.458462 
Drag coefficient: 0.696359 
Lateral coefficient: -0.000014 
Lift coefficient: -0.234267 
torque (ref. CG): 0.070115 (roll) -1627.284240 (pitch) 0.305503 (yaw) 
----------------------------------------------------- 
step 100, time 0.080000, maxvel 3.000000, total vol 183257, vol(u>maxvel) 183256, cell count 46089452
bounding box (containing cells with vel>maxvel): xmin -37.5001 -17.7002 -0.50396, xmax 116.7 17.7002 32.1087m 
bounding box of vehicle: xmin -12.2 -1.30008 -6.44084e-18, xmax 6.64751e-18 1.30008 3.6m 
gts area: 163.426 
yplus max: 130.325, yplus min: 0.0340621 
position of yplus max: -12.0304 -1.28988 1.94884 
yplus prom: 3.04218 
forces: 2489.148558 -0.051311 -838.547639 
Drag coefficient: 0.694644 
Lateral coefficient: -0.000014 
Lift coefficient: -0.234013 
torque (ref. CG): 0.071835 (roll) -1630.332616 (pitch) 0.312995 (yaw) 
----------------------------------------------------- 
step 101, time 0.080800, maxvel 3.000000, total vol 183257, vol(u>maxvel) 183256, cell count 46091920
bounding box (containing cells with vel>maxvel): xmin -37.5001 -17.7002 -0.50396, xmax 116.7 17.7002 32.1087m 
bounding box of vehicle: xmin -12.2 -1.30008 -6.44084e-18, xmax 6.64751e-18 1.30008 3.6m 
gts area: 163.426 
yplus max: 130.322, yplus min: 0.0283468 
position of yplus max: -12.0304 -1.28988 1.94884 
yplus prom: 3.04102 
forces: 2483.049003 -0.051174 -837.625556 
Drag coefficient: 0.692942 
Lateral coefficient: -0.000014 
Lift coefficient: -0.233755 
torque (ref. CG): 0.071643 (roll) -1633.247289 (pitch) 0.312159 (yaw) 
----------------------------------------------------- 
step 102, time 0.081600, maxvel 3.000000, total vol 183257, vol(u>maxvel) 183256, cell count 46094131
bounding box (containing cells with vel>maxvel): xmin -37.5001 -17.7002 -0.50396, xmax 116.7 17.7002 32.1087m 
bounding box of vehicle: xmin -12.2 -1.30008 -6.44084e-18, xmax 6.64751e-18 1.30008 3.6m 
gts area: 163.426 
yplus max: 130.32, yplus min: 0.032383 
position of yplus max: -12.0304 -1.28988 1.94884 
yplus prom: 3.03987 
forces: 2477.015051 -0.053507 -836.688253 
Drag coefficient: 0.691258 
Lateral coefficient: -0.000015 
Lift coefficient: -0.233494 
torque (ref. CG): 0.074910 (roll) -1635.977269 (pitch) 0.326395 (yaw) 
----------------------------------------------------- 
step 103, time 0.082400, maxvel 3.000000, total vol 183257, vol(u>maxvel) 183256, cell count 46096663
bounding box (containing cells with vel>maxvel): xmin -37.5001 -17.7002 -0.50396, xmax 116.7 17.7002 32.1087m 
bounding box of vehicle: xmin -12.2 -1.30008 -6.44084e-18, xmax 6.64751e-18 1.30008 3.6m 
gts area: 163.426 
yplus max: 130.318, yplus min: 0.0302265 
position of yplus max: -12.0304 -1.28988 1.94884 
yplus prom: 3.03873 
forces: 2471.020069 -0.053733 -835.723930 
Drag coefficient: 0.689585 
Lateral coefficient: -0.000015 
Lift coefficient: -0.233225 
torque (ref. CG): 0.075226 (roll) -1638.487879 (pitch) 0.327770 (yaw) 
----------------------------------------------------- 
step 104, time 0.083200, maxvel 3.000000, total vol 183257, vol(u>maxvel) 183256, cell count 46098914
bounding box (containing cells with vel>maxvel): xmin -37.5001 -17.7002 -0.50396, xmax 116.7 17.7002 32.1087m 
bounding box of vehicle: xmin -12.2 -1.30008 -6.44084e-18, xmax 6.64751e-18 1.30008 3.6m 
gts area: 163.426 
yplus max: 130.316, yplus min: 0.0382082 
position of yplus max: -12.0304 -1.28988 1.94884 
yplus prom: 3.03761 
forces: 2465.085800 -0.055263 -834.746096 
Drag coefficient: 0.687929 
Lateral coefficient: -0.000015 
Lift coefficient: -0.232952 
torque (ref. CG): 0.077369 (roll) -1640.831064 (pitch) 0.337106 (yaw) 
----------------------------------------------------- 
step 105, time 0.084000, maxvel 3.000000, total vol 183257, vol(u>maxvel) 183256, cell count 46101339
bounding box (containing cells with vel>maxvel): xmin -37.5001 -17.7002 -0.50396, xmax 116.7 17.7002 32.1087m 
bounding box of vehicle: xmin -12.2 -1.30008 -6.44084e-18, xmax 6.64751e-18 1.30008 3.6m 
gts area: 163.426 
yplus max: 130.314, yplus min: 0.0392516 
position of yplus max: -12.0304 -1.28988 1.94884 
yplus prom: 3.03649 
forces: 2459.195277 -0.054189 -833.742559 
Drag coefficient: 0.686285 
Lateral coefficient: -0.000015 
Lift coefficient: -0.232672 
torque (ref. CG): 0.075864 (roll) -1642.956222 (pitch) 0.330552 (yaw) 
----------------------------------------------------- 
step 106, time 0.084800, maxvel 3.000000, total vol 183257, vol(u>maxvel) 183256, cell count 46103412
bounding box (containing cells with vel>maxvel): xmin -37.5001 -17.7002 -0.50396, xmax 116.7 17.7002 32.1087m 
bounding box of vehicle: xmin -12.2 -1.30008 -6.44084e-18, xmax 6.64751e-18 1.30008 3.6m 
gts area: 163.426 
yplus max: 130.312, yplus min: 0.0402969 
position of yplus max: -12.0304 -1.28988 1.94884 
yplus prom: 3.03538 
forces: 2453.362102 -0.056215 -832.719043 
Drag coefficient: 0.684657 
Lateral coefficient: -0.000016 
Lift coefficient: -0.232386 
torque (ref. CG): 0.078701 (roll) -1644.879220 (pitch) 0.342910 (yaw) 
----------------------------------------------------- 
step 107, time 0.085600, maxvel 3.000000, total vol 183257, vol(u>maxvel) 183256, cell count 46105559
bounding box (containing cells with vel>maxvel): xmin -37.5001 -17.7002 -0.50396, xmax 116.7 17.7002 32.1087m 
bounding box of vehicle: xmin -12.2 -1.30008 -6.44084e-18, xmax 6.64751e-18 1.30008 3.6m 
gts area: 163.426 
yplus max: 130.31, yplus min: 0.0408166 
position of yplus max: -12.0304 -1.28988 1.94884 
yplus prom: 3.03428 
forces: 2447.589483 -0.058020 -831.676768 
Drag coefficient: 0.683046 
Lateral coefficient: -0.000016 
Lift coefficient: -0.232095 
torque (ref. CG): 0.081228 (roll) -1646.603009 (pitch) 0.353923 (yaw) 
----------------------------------------------------- 
step 108, time 0.086400, maxvel 3.000000, total vol 183257, vol(u>maxvel) 183256, cell count 46107125
bounding box (containing cells with vel>maxvel): xmin -37.5001 -17.7002 -0.50396, xmax 116.7 17.7002 32.1087m 
bounding box of vehicle: xmin -12.2 -1.30008 -6.44084e-18, xmax 6.64751e-18 1.30008 3.6m 
gts area: 163.426 
yplus max: 130.308, yplus min: 0.0401387 
position of yplus max: -12.0304 -1.28988 1.94884 
yplus prom: 3.0332 
forces: 2441.884352 -0.061565 -830.609561 
Drag coefficient: 0.681454 
Lateral coefficient: -0.000017 
Lift coefficient: -0.231797 
torque (ref. CG): 0.086192 (roll) -1648.080227 (pitch) 0.375549 (yaw) 
----------------------------------------------------- 
step 109, time 0.087200, maxvel 3.000000, total vol 183257, vol(u>maxvel) 183256, cell count 46108897
bounding box (containing cells with vel>maxvel): xmin -37.5001 -17.7002 -0.50396, xmax 116.7 17.7002 32.1087m 
bounding box of vehicle: xmin -12.2 -1.30008 -6.44084e-18, xmax 6.64751e-18 1.30008 3.6m 
gts area: 163.426 
yplus max: 130.306, yplus min: 0.0394988 
position of yplus max: -12.0304 -1.28988 1.94884 
yplus prom: 3.03212 
forces: 2436.190233 -0.055356 -829.540468 
Drag coefficient: 0.679865 
Lateral coefficient: -0.000015 
Lift coefficient: -0.231499 
torque (ref. CG): 0.077498 (roll) -1649.530527 (pitch) 0.337672 (yaw) 
----------------------------------------------------- 
step 110, time 0.088000, maxvel 3.000000, total vol 183257, vol(u>maxvel) 183256, cell count 46111037
bounding box (containing cells with vel>maxvel): xmin -37.5001 -17.7002 -0.50396, xmax 116.7 17.7002 32.1087m 
bounding box of vehicle: xmin -12.2 -1.30008 -6.44084e-18, xmax 6.64751e-18 1.30008 3.6m 
gts area: 163.426 
yplus max: 130.304, yplus min: 0.0389726 
position of yplus max: -12.0304 -1.28988 1.94884 
yplus prom: 3.03106 
forces: 2430.580991 -0.059235 -828.429779 
Drag coefficient: 0.678299 
Lateral coefficient: -0.000017 
Lift coefficient: -0.231189 
torque (ref. CG): 0.082928 (roll) -1650.608262 (pitch) 0.361330 (yaw) 
----------------------------------------------------- 
step 111, time 0.088800, maxvel 3.000000, total vol 183257, vol(u>maxvel) 183256, cell count 46112755
bounding box (containing cells with vel>maxvel): xmin -37.5001 -17.7002 -0.50396, xmax 116.7 17.7002 32.1087m 
bounding box of vehicle: xmin -12.2 -1.30008 -6.44084e-18, xmax 6.64751e-18 1.30008 3.6m 
gts area: 163.426 
yplus max: 130.302, yplus min: 0.0385239 
position of yplus max: -12.0304 -1.28988 1.94884 
yplus prom: 3.03001 
forces: 2425.009856 -0.061617 -827.319798 
Drag coefficient: 0.676745 
Lateral coefficient: -0.000017 
Lift coefficient: -0.230879 
torque (ref. CG): 0.086264 (roll) -1651.636970 (pitch) 0.375866 (yaw) 
----------------------------------------------------- 
step 112, time 0.089600, maxvel 3.000000, total vol 183257, vol(u>maxvel) 183256, cell count 46114404
bounding box (containing cells with vel>maxvel): xmin -37.5001 -17.7002 -0.50396, xmax 116.7 17.7002 32.1087m 
bounding box of vehicle: xmin -12.2 -1.30008 -6.44084e-18, xmax 6.64751e-18 1.30008 3.6m 
gts area: 163.426 
yplus max: 130.3, yplus min: 0.0381725 
position of yplus max: -12.0304 -1.28988 1.94884 
yplus prom: 3.02897 
forces: 2419.480307 -0.060566 -826.169878 
Drag coefficient: 0.675202 
Lateral coefficient: -0.000017 
Lift coefficient: -0.230558 
torque (ref. CG): 0.084792 (roll) -1652.363828 (pitch) 0.369450 (yaw) 
----------------------------------------------------- 
step 113, time 0.090400, maxvel 3.000000, total vol 183257, vol(u>maxvel) 183256, cell count 46116482
bounding box (containing cells with vel>maxvel): xmin -37.5001 -17.7002 -0.50396, xmax 116.7 17.7002 32.1087m 
bounding box of vehicle: xmin -12.2 -1.30008 -6.44084e-18, xmax 6.64751e-18 1.30008 3.6m 
gts area: 163.426 
yplus max: 130.298, yplus min: 0.0379628 
position of yplus max: -12.0304 -1.28988 1.94884 
yplus prom: 3.02795 
forces: 2413.998007 -0.060705 -825.012924 
Drag coefficient: 0.673672 
Lateral coefficient: -0.000017 
Lift coefficient: -0.230235 
torque (ref. CG): 0.084987 (roll) -1652.981626 (pitch) 0.370300 (yaw) 
----------------------------------------------------- 
step 114, time 0.091200, maxvel 3.000000, total vol 183257, vol(u>maxvel) 183256, cell count 46118321
bounding box (containing cells with vel>maxvel): xmin -37.5001 -17.7002 -0.50396, xmax 116.7 17.7002 32.1087m 
bounding box of vehicle: xmin -12.2 -1.30008 -6.44084e-18, xmax 6.64751e-18 1.30008 3.6m 
gts area: 163.426 
yplus max: 130.296, yplus min: 0.0378474 
position of yplus max: -12.0304 -1.28988 1.94884 
yplus prom: 3.02693 
forces: 2408.556632 -0.062151 -823.837014 
[...]
yplus prom: 2.88218 
forces: 1613.026200 -0.212404 -504.625603 
Drag coefficient: 0.450145 
Lateral coefficient: -0.000059 
Lift coefficient: -0.140825 
torque (ref. CG): 0.297366 (roll) -819.979497 (pitch) 1.295667 (yaw) 
----------------------------------------------------- 
step 431, time 0.344800, maxvel 3.000000, total vol 183257, vol(u>maxvel) 183256, cell count 45908383
bounding box (containing cells with vel>maxvel): xmin -37.5001 -17.7002 -0.50396, xmax 116.7 17.7002 32.1087m 
bounding box of vehicle: xmin -12.2 -1.30008 -6.44084e-18, xmax 6.64751e-18 1.30008 3.6m 
gts area: 163.426 
yplus max: 130.057, yplus min: 0.0422401 
position of yplus max: -12.0304 -1.28988 1.94884 
yplus prom: 2.88196 
forces: 1612.546468 -0.212653 -504.210763 
Drag coefficient: 0.450012 
Lateral coefficient: -0.000059 
Lift coefficient: -0.140710 
torque (ref. CG): 0.297714 (roll) -818.120602 (pitch) 1.297183 (yaw) 
----------------------------------------------------- 
step 432, time 0.345600, maxvel 3.000000, total vol 183257, vol(u>maxvel) 183256, cell count 45907957
bounding box (containing cells with vel>maxvel): xmin -37.5001 -17.7002 -0.50396, xmax 116.7 17.7002 32.1087m 
bounding box of vehicle: xmin -12.2 -1.30008 -6.44084e-18, xmax 6.64751e-18 1.30008 3.6m 
gts area: 163.426 
yplus max: 130.057, yplus min: 0.0524377 
position of yplus max: -12.0304 -1.28988 1.94884 
yplus prom: 2.88174 
forces: 1612.067155 -0.213208 -503.803512 
Drag coefficient: 0.449878 
Lateral coefficient: -0.000059 
Lift coefficient: -0.140596 
torque (ref. CG): 0.298491 (roll) -816.307406 (pitch) 1.300567 (yaw) 
----------------------------------------------------- 
step 433, time 0.346400, maxvel 3.000000, total vol 183257, vol(u>maxvel) 183256, cell count 45907672
bounding box (containing cells with vel>maxvel): xmin -37.5001 -17.7002 -0.50396, xmax 116.7 17.7002 32.1087m 
bounding box of vehicle: xmin -12.2 -1.30008 -6.44084e-18, xmax 6.64751e-18 1.30008 3.6m 
gts area: 163.426 
yplus max: 130.057, yplus min: 0.0550559 
position of yplus max: -12.0304 -1.28988 1.94884 
yplus prom: 2.88152 
forces: 1611.583816 -0.212702 -503.405917 
Drag coefficient: 0.449743 
Lateral coefficient: -0.000059 
Lift coefficient: -0.140485 
torque (ref. CG): 0.297783 (roll) -814.558750 (pitch) 1.297483 (yaw) 
----------------------------------------------------- 
step 434, time 0.347200, maxvel 3.000000, total vol 183257, vol(u>maxvel) 183256, cell count 45907258
bounding box (containing cells with vel>maxvel): xmin -37.5001 -17.7002 -0.50396, xmax 116.7 17.7002 32.1087m 
bounding box of vehicle: xmin -12.2 -1.30008 -6.44084e-18, xmax 6.64751e-18 1.30008 3.6m 
gts area: 163.426 
yplus max: 130.056, yplus min: 0.0435354 
position of yplus max: -12.0304 -1.28988 1.94884 
yplus prom: 2.88131 
forces: 1611.099112 -0.212070 -503.013004 
Drag coefficient: 0.449608 
Lateral coefficient: -0.000059 
Lift coefficient: -0.140375 
torque (ref. CG): 0.296898 (roll) -812.840569 (pitch) 1.293628 (yaw) 
----------------------------------------------------- 
step 435, time 0.348000, maxvel 3.000000, total vol 183257, vol(u>maxvel) 183256, cell count 45906876
bounding box (containing cells with vel>maxvel): xmin -37.5001 -17.7002 -0.50396, xmax 116.7 17.7002 32.1087m 
bounding box of vehicle: xmin -12.2 -1.30008 -6.44084e-18, xmax 6.64751e-18 1.30008 3.6m 
gts area: 163.426 
yplus max: 130.056, yplus min: 0.0475618 
position of yplus max: -12.0304 -1.28988 1.94884 
yplus prom: 2.88109 
forces: 1610.611557 -0.212664 -502.633904 
Drag coefficient: 0.449472 
Lateral coefficient: -0.000059 
Lift coefficient: -0.140269 
torque (ref. CG): 0.297730 (roll) -811.210636 (pitch) 1.297253 (yaw) 
----------------------------------------------------- 
step 436, time 0.348800, maxvel 3.000000, total vol 183257, vol(u>maxvel) 183256, cell count 45906393
bounding box (containing cells with vel>maxvel): xmin -37.5001 -17.7002 -0.50396, xmax 116.7 17.7002 32.1087m 
bounding box of vehicle: xmin -12.2 -1.30008 -6.44084e-18, xmax 6.64751e-18 1.30008 3.6m 
gts area: 163.426 
yplus max: 130.056, yplus min: 0.0437898 
position of yplus max: -12.0304 -1.28988 1.94884 
yplus prom: 2.88088 
forces: 1610.120330 -0.211022 -502.257473 
Drag coefficient: 0.449334 
Lateral coefficient: -0.000059 
Lift coefficient: -0.140164 
torque (ref. CG): 0.295431 (roll) -809.602124 (pitch) 1.287233 (yaw) 
----------------------------------------------------- 
step 437, time 0.349600, maxvel 3.000000, total vol 183257, vol(u>maxvel) 183256, cell count 45905937
bounding box (containing cells with vel>maxvel): xmin -37.5001 -17.7002 -0.50396, xmax 116.7 17.7002 32.1087m 
bounding box of vehicle: xmin -12.2 -1.30008 -6.44084e-18, xmax 6.64751e-18 1.30008 3.6m 
gts area: 163.426 
yplus max: 130.055, yplus min: 0.045265 
position of yplus max: -12.0304 -1.28988 1.94884 
yplus prom: 2.88066 
forces: 1609.631233 -0.212492 -501.890243 
Drag coefficient: 0.449198 
Lateral coefficient: -0.000059 
Lift coefficient: -0.140062 
torque (ref. CG): 0.297489 (roll) -808.046753 (pitch) 1.296204 (yaw) 
----------------------------------------------------- 
step 438, time 0.350400, maxvel 3.000000, total vol 183257, vol(u>maxvel) 183256, cell count 45905288
bounding box (containing cells with vel>maxvel): xmin -37.5001 -17.7002 -0.50396, xmax 116.7 17.7002 32.1087m 
bounding box of vehicle: xmin -12.2 -1.30008 -6.44084e-18, xmax 6.64751e-18 1.30008 3.6m 
gts area: 163.426 
yplus max: 130.055, yplus min: 0.0460375 
position of yplus max: -12.0304 -1.28988 1.94884 
yplus prom: 2.88045 
forces: 1609.136975 -0.211313 -501.533579 
Drag coefficient: 0.449060 
Lateral coefficient: -0.000059 
Lift coefficient: -0.139962 
torque (ref. CG): 0.295838 (roll) -806.563064 (pitch) 1.289007 (yaw) 
----------------------------------------------------- 
step 439, time 0.351200, maxvel 3.000000, total vol 183257, vol(u>maxvel) 183256, cell count 45904704
bounding box (containing cells with vel>maxvel): xmin -37.5001 -17.7002 -0.50396, xmax 116.7 17.7002 32.1087m 
bounding box of vehicle: xmin -12.2 -1.30008 -6.44084e-18, xmax 6.64751e-18 1.30008 3.6m 
gts area: 163.426 
yplus max: 130.055, yplus min: 0.0611485 
position of yplus max: -12.0304 -1.28988 1.94884 
yplus prom: 2.88023 
forces: 1608.640168 -0.211298 -501.186127 
Drag coefficient: 0.448921 
Lateral coefficient: -0.000059 
Lift coefficient: -0.139865 
torque (ref. CG): 0.295818 (roll) -805.139143 (pitch) 1.288920 (yaw) 
----------------------------------------------------- 
step 440, time 0.352000, maxvel 3.000000, total vol 183257, vol(u>maxvel) 183256, cell count 45904015
bounding box (containing cells with vel>maxvel): xmin -37.5001 -17.7002 -0.50396, xmax 116.7 17.7002 32.1087m 
bounding box of vehicle: xmin -12.2 -1.30008 -6.44084e-18, xmax 6.64751e-18 1.30008 3.6m 
gts area: 163.426 
yplus max: 130.055, yplus min: 0.0613576 
position of yplus max: -12.0304 -1.28988 1.94884 
yplus prom: 2.88002 
forces: 1608.141955 -0.211350 -500.847856 
Drag coefficient: 0.448782 
Lateral coefficient: -0.000059 
Lift coefficient: -0.139771 
torque (ref. CG): 0.295890 (roll) -803.773184 (pitch) 1.289235 (yaw) 
----------------------------------------------------- 
step 441, time 0.352800, maxvel 3.000000, total vol 183257, vol(u>maxvel) 183256, cell count 45903486
bounding box (containing cells with vel>maxvel): xmin -37.5001 -17.7002 -0.50396, xmax 116.7 17.7002 32.1087m 
bounding box of vehicle: xmin -12.2 -1.30008 -6.44084e-18, xmax 6.64751e-18 1.30008 3.6m 
gts area: 163.426 
yplus max: 130.054, yplus min: 0.0615674 
position of yplus max: -12.0304 -1.28988 1.94884 
yplus prom: 2.87981 
forces: 1607.639788 -0.210805 -500.517717 
Drag coefficient: 0.448642 
Lateral coefficient: -0.000059 
Lift coefficient: -0.139679 
torque (ref. CG): 0.295127 (roll) -802.462370 (pitch) 1.285909 (yaw) 
----------------------------------------------------- 
step 442, time 0.353600, maxvel 3.000000, total vol 183257, vol(u>maxvel) 183256, cell count 45902914
bounding box (containing cells with vel>maxvel): xmin -37.5001 -17.7002 -0.50396, xmax 116.7 17.7002 32.1087m 
bounding box of vehicle: xmin -12.2 -1.30008 -6.44084e-18, xmax 6.64751e-18 1.30008 3.6m 
gts area: 163.426 
yplus max: 130.054, yplus min: 0.0617764 
position of yplus max: -12.0304 -1.28988 1.94884 
yplus prom: 2.8796 
forces: 1607.136407 -0.210203 -500.197171 
Drag coefficient: 0.448502 
Lateral coefficient: -0.000059 
Lift coefficient: -0.139589 
torque (ref. CG): 0.294285 (roll) -801.211775 (pitch) 1.282241 (yaw) 
----------------------------------------------------- 
step 443, time 0.354400, maxvel 3.000000, total vol 183257, vol(u>maxvel) 183256, cell count 45902250
bounding box (containing cells with vel>maxvel): xmin -37.5001 -17.7002 -0.50396, xmax 116.7 17.7002 32.1087m 
bounding box of vehicle: xmin -12.2 -1.30008 -6.44084e-18, xmax 6.64751e-18 1.30008 3.6m 
gts area: 163.426 
yplus max: 130.054, yplus min: 0.0590176 
position of yplus max: -12.0304 -1.28988 1.94884 
yplus prom: 2.87939 
forces: 1606.629958 -0.211774 -499.890461 
Drag coefficient: 0.448360 
Lateral coefficient: -0.000059 
Lift coefficient: -0.139504 
torque (ref. CG): 0.296483 (roll) -800.049871 (pitch) 1.291819 (yaw) 
----------------------------------------------------- 
step 444, time 0.355200, maxvel 3.000000, total vol 183257, vol(u>maxvel) 183256, cell count 45901510
bounding box (containing cells with vel>maxvel): xmin -37.5001 -17.7002 -0.50396, xmax 116.7 17.7002 32.1087m 
bounding box of vehicle: xmin -12.2 -1.30008 -6.44084e-18, xmax 6.64751e-18 1.30008 3.6m 
gts area: 163.426 
yplus max: 130.053, yplus min: 0.0507117 
position of yplus max: -12.0304 -1.28988 1.94884 
yplus prom: 2.87918 
forces: 1606.119377 -0.209535 -499.583600 
Drag coefficient: 0.448218 
Lateral coefficient: -0.000058 
Lift coefficient: -0.139418 
torque (ref. CG): 0.293349 (roll) -798.892831 (pitch) 1.278162 (yaw) 
----------------------------------------------------- 
step 445, time 0.356000, maxvel 3.000000, total vol 183257, vol(u>maxvel) 183256, cell count 45900792
bounding box (containing cells with vel>maxvel): xmin -37.5001 -17.7002 -0.50396, xmax 116.7 17.7002 32.1087m 
bounding box of vehicle: xmin -12.2 -1.30008 -6.44084e-18, xmax 6.64751e-18 1.30008 3.6m 
gts area: 163.426 
yplus max: 130.053, yplus min: 0.0426696 
position of yplus max: -12.0304 -1.28988 1.94884 
yplus prom: 2.87897 
forces: 1605.609329 -0.209217 -499.290249 
Drag coefficient: 0.448076 
Lateral coefficient: -0.000058 
Lift coefficient: -0.139336 
torque (ref. CG): 0.292903 (roll) -797.817457 (pitch) 1.276222 (yaw) 
----------------------------------------------------- 
step 446, time 0.356800, maxvel 3.000000, total vol 183257, vol(u>maxvel) 183256, cell count 45900051
bounding box (containing cells with vel>maxvel): xmin -37.5001 -17.7002 -0.50396, xmax 116.7 17.7002 32.1087m 
bounding box of vehicle: xmin -12.2 -1.30008 -6.44084e-18, xmax 6.64751e-18 1.30008 3.6m 
gts area: 163.426 
yplus max: 130.053, yplus min: 0.0441992 
position of yplus max: -12.0304 -1.28988 1.94884 
yplus prom: 2.87876 
forces: 1605.094906 -0.209707 -499.011940 
Drag coefficient: 0.447932 
Lateral coefficient: -0.000059 
Lift coefficient: -0.139259 
torque (ref. CG): 0.293590 (roll) -796.839968 (pitch) 1.279214 (yaw) 
----------------------------------------------------- 
step 447, time 0.357600, maxvel 3.000000, total vol 183257, vol(u>maxvel) 183256, cell count 45899416
bounding box (containing cells with vel>maxvel): xmin -37.5001 -17.7002 -0.50396, xmax 116.7 17.7002 32.1087m 
bounding box of vehicle: xmin -12.2 -1.30008 -6.44084e-18, xmax 6.64751e-18 1.30008 3.6m 
gts area: 163.426 
yplus max: 130.052, yplus min: 0.0571817 
position of yplus max: -12.0304 -1.28988 1.94884 
yplus prom: 2.87855 
forces: 1604.577789 -0.210216 -498.739971 
Drag coefficient: 0.447788 
Lateral coefficient: -0.000059 
Lift coefficient: -0.139183 
torque (ref. CG): 0.294303 (roll) -795.904917 (pitch) 1.282320 (yaw) 
----------------------------------------------------- 
step 448, time 0.358400, maxvel 3.000000, total vol 183257, vol(u>maxvel) 183256, cell count 45898776
bounding box (containing cells with vel>maxvel): xmin -37.5001 -17.7002 -0.50396, xmax 116.7 17.7002 32.1087m 
bounding box of vehicle: xmin -12.2 -1.30008 -6.44084e-18, xmax 6.64751e-18 1.30008 3.6m 
gts area: 163.426 
yplus max: 130.052, yplus min: 0.0569759 
position of yplus max: -12.0304 -1.28988 1.94884 
yplus prom: 2.87834 
forces: 1604.057305 -0.209648 -498.477151 
Drag coefficient: 0.447642 
Lateral coefficient: -0.000059 
Lift coefficient: -0.139109 
torque (ref. CG): 0.293507 (roll) -795.030393 (pitch) 1.278850 (yaw) 
----------------------------------------------------- 
step 449, time 0.359200, maxvel 3.000000, total vol 183257, vol(u>maxvel) 183256, cell count 45897991
bounding box (containing cells with vel>maxvel): xmin -37.5001 -17.7002 -0.50396, xmax 116.7 17.7002 32.1087m 
bounding box of vehicle: xmin -12.2 -1.30008 -6.44084e-18, xmax 6.64751e-18 1.30008 3.6m 
gts area: 163.426 
yplus max: 130.052, yplus min: 0.0482354 
position of yplus max: -12.0304 -1.28988 1.94884 
yplus prom: 2.87813 
forces: 1603.533999 -0.209579 -498.224117 
Drag coefficient: 0.447496 
Lateral coefficient: -0.000058 
Lift coefficient: -0.139039 
torque (ref. CG): 0.293410 (roll) -794.219513 (pitch) 1.278429 (yaw) 
----------------------------------------------------- 
step 450, time 0.360000, maxvel 3.000000, total vol 183257, vol(u>maxvel) 183256, cell count 45897146
bounding box (containing cells with vel>maxvel): xmin -37.5001 -17.7002 -0.50396, xmax 116.7 17.7002 32.1087m 
bounding box of vehicle: xmin -12.2 -1.30008 -6.44084e-18, xmax 6.64751e-18 1.30008 3.6m 
gts area: 163.426 
yplus max: 130.052, yplus min: 0.0471068 
position of yplus max: -12.0304 -1.28988 1.94884 
yplus prom: 2.87792 
forces: 1603.007578 -0.209037 -497.978758 
Drag coefficient: 0.447349 
Lateral coefficient: -0.000058 
Lift coefficient: -0.138970 
torque (ref. CG): 0.292651 (roll) -793.459817 (pitch) 1.275123 (yaw) 
----------------------------------------------------- 
step 451, time 0.360800, maxvel 3.000000, total vol 183257, vol(u>maxvel) 183256, cell count 45896212
bounding box (containing cells with vel>maxvel): xmin -37.5001 -17.7002 -0.50396, xmax 116.7 17.7002 32.1087m 
bounding box of vehicle: xmin -12.2 -1.30008 -6.44084e-18, xmax 6.64751e-18 1.30008 3.6m 
gts area: 163.426 
yplus max: 130.051, yplus min: 0.043701 
position of yplus max: -12.0304 -1.28988 1.94884 
yplus prom: 2.87772 
forces: 1602.478407 -0.209019 -497.743291 
Drag coefficient: 0.447202 
Lateral coefficient: -0.000058 
Lift coefficient: -0.138905 
torque (ref. CG): 0.292626 (roll) -792.764303 (pitch) 1.275013 (yaw) 
----------------------------------------------------- 
step 452, time 0.361600, maxvel 3.000000, total vol 183257, vol(u>maxvel) 183256, cell count 45895346
bounding box (containing cells with vel>maxvel): xmin -37.5001 -17.7002 -0.50396, xmax 116.7 17.7002 32.1087m 
bounding box of vehicle: xmin -12.2 -1.30008 -6.44084e-18, xmax 6.64751e-18 1.30008 3.6m 
gts area: 163.426 
yplus max: 130.051, yplus min: 0.0397917 
position of yplus max: -12.0304 -1.28988 1.94884 
yplus prom: 2.87751 
forces: 1601.946120 -0.209065 -497.517607 
Drag coefficient: 0.447053 
Lateral coefficient: -0.000058 
Lift coefficient: -0.138842 
torque (ref. CG): 0.292692 (roll) -792.132836 (pitch) 1.275299 (yaw) 
----------------------------------------------------- 
step 453, time 0.362400, maxvel 3.000000, total vol 183257, vol(u>maxvel) 183256, cell count 45894396
bounding box (containing cells with vel>maxvel): xmin -37.5001 -17.7002 -0.50396, xmax 116.7 17.7002 32.1087m 
bounding box of vehicle: xmin -12.2 -1.30008 -6.44084e-18, xmax 6.64751e-18 1.30008 3.6m 
gts area: 163.426 
yplus max: 130.051, yplus min: 0.037359 
position of yplus max: -12.0304 -1.28988 1.94884 
yplus prom: 2.8773 
forces: 1601.411040 -0.208923 -497.300945 
Drag coefficient: 0.446904 
Lateral coefficient: -0.000058 
Lift coefficient: -0.138781 
torque (ref. CG): 0.292492 (roll) -791.560306 (pitch) 1.274430 (yaw) 
----------------------------------------------------- 
step 454, time 0.363200, maxvel 3.000000, total vol 183257, vol(u>maxvel) 183256, cell count 45893678
bounding box (containing cells with vel>maxvel): xmin -37.5001 -17.7002 -0.50396, xmax 116.7 17.7002 32.1087m 
bounding box of vehicle: xmin -12.2 -1.30008 -6.44084e-18, xmax 6.64751e-18 1.30008 3.6m 
gts area: 163.426 
yplus max: 130.05, yplus min: 0.0342677 
position of yplus max: -12.0304 -1.28988 1.94884 
yplus prom: 2.87709 
forces: 1600.872961 -0.208384 -497.091741 
Drag coefficient: 0.446754 
Lateral coefficient: -0.000058 
Lift coefficient: -0.138723 
torque (ref. CG): 0.291737 (roll) -791.037476 (pitch) 1.271142 (yaw) 
----------------------------------------------------- 
step 455, time 0.364000, maxvel 3.000000, total vol 183257, vol(u>maxvel) 183256, cell count 45892894
bounding box (containing cells with vel>maxvel): xmin -37.5001 -17.7002 -0.50396, xmax 116.7 17.7002 32.1087m 
bounding box of vehicle: xmin -12.2 -1.30008 -6.44084e-18, xmax 6.64751e-18 1.30008 3.6m 
gts area: 163.426 
yplus max: 130.05, yplus min: 0.0275539 
position of yplus max: -12.0304 -1.28988 1.94884 
yplus prom: 2.87689 
forces: 1600.332326 -0.208453 -496.892727 
Drag coefficient: 0.446603 
Lateral coefficient: -0.000058 
Lift coefficient: -0.138667 
torque (ref. CG): 0.291834 (roll) -790.580377 (pitch) 1.271561 (yaw) 
----------------------------------------------------- 
step 456, time 0.364800, maxvel 3.000000, total vol 183257, vol(u>maxvel) 183256, cell count 45891852
bounding box (containing cells with vel>maxvel): xmin -37.5001 -17.7002 -0.50396, xmax 116.7 17.7002 32.1087m 
bounding box of vehicle: xmin -12.2 -1.30008 -6.44084e-18, xmax 6.64751e-18 1.30008 3.6m 
gts area: 163.426 
yplus max: 130.05, yplus min: 0.0245793 
position of yplus max: -12.0304 -1.28988 1.94884 
yplus prom: 2.87668 
forces: 1599.787631 -0.208453 -496.703611 
Drag coefficient: 0.446451 
Lateral coefficient: -0.000058 
Lift coefficient: -0.138615 
torque (ref. CG): 0.291835 (roll) -790.189345 (pitch) 1.271565 (yaw) 
----------------------------------------------------- 
step 457, time 0.365600, maxvel 3.000000, total vol 183257, vol(u>maxvel) 183256, cell count 45890854
bounding box (containing cells with vel>maxvel): xmin -37.5001 -17.7002 -0.50396, xmax 116.7 17.7002 32.1087m 
bounding box of vehicle: xmin -12.2 -1.30008 -6.44084e-18, xmax 6.64751e-18 1.30008 3.6m 
gts area: 163.426 
yplus max: 130.049, yplus min: 0.0294886 
position of yplus max: -12.0304 -1.28988 1.94884 
yplus prom: 2.87647 
forces: 1599.238796 -0.207177 -496.522029 
Drag coefficient: 0.446298 
Lateral coefficient: -0.000058 
Lift coefficient: -0.138564 
torque (ref. CG): 0.290047 (roll) -789.850065 (pitch) 1.263777 (yaw) 
----------------------------------------------------- 
step 458, time 0.366400, maxvel 3.000000, total vol 183257, vol(u>maxvel) 183256, cell count 45889974
bounding box (containing cells with vel>maxvel): xmin -37.5001 -17.7002 -0.50396, xmax 116.7 17.7002 32.1087m 
bounding box of vehicle: xmin -12.2 -1.30008 -6.44084e-18, xmax 6.64751e-18 1.30008 3.6m 
gts area: 163.426 
yplus max: 130.049, yplus min: 0.0364359 
position of yplus max: -12.0304 -1.28988 1.94884 
yplus prom: 2.87627 
forces: 1598.687598 -0.207976 -496.349950 
Drag coefficient: 0.446144 
Lateral coefficient: -0.000058 
Lift coefficient: -0.138516 
torque (ref. CG): 0.291166 (roll) -789.572056 (pitch) 1.268651 (yaw) 
----------------------------------------------------- 
srun: Job step aborted: Waiting up to 32 seconds for job step to finish.
srun: got SIGCONT
slurmstepd: error: *** STEP 141011.0 ON compute-0-21 CANCELLED AT 2022-09-21T17:27:28 ***
slurmstepd: error: *** JOB 141011 ON compute-0-21 CANCELLED AT 2022-09-21T17:27:28 ***
srun: forcing job termination
make: *** [run] Terminado
