Start run at Fri Aug 12 09:38:09 ART 2022
PYTHON_CS_XFLAGS=' -O0 -g3 -ggdb3 -I/usr/include/jsoncpp ' /share/storage/pub/mstorti/saturne-vof/bin/code_saturne  run --param setup.xml

The following have been reloaded with a version change:
  1) llvm/6.0.0 => llvm/3.4.2


The following have been reloaded with a version change:
  1) llvm/3.4.2 => llvm/6.0.0


                      Code_Saturne
                      ************

 Version:   6.1-alpha
 Path:      /share/storage/pub/mstorti/saturne-vof

 Result directory:
   /share/storage/finzeo/GTS_Tunay_2/RESU/20220812-0938


 ****************************************
  Compiling user subroutines and linking
 ****************************************


 ****************************
  Preparing calculation data
 ****************************

 Parallel Code_Saturne on 140 processes.


 ***************************
  Preprocessing calculation
 ***************************


 **********************
  Starting calculation
 **********************

Warning: Process to core binding is enabled and OMP_NUM_THREADS is set to non-zero (1) value
If your program has OpenMP sections, this can cause over-subscription of cores and consequently poor performance
To avoid this, please re-run your application after setting MV2_ENABLE_AFFINITY=0
Use MV2_USE_THREAD_WARNING=0 to suppress this message
step 1, time 0.000750, maxvel 30.000000, total vol 183256, vol(u>maxvel) 7.05908, cell count 755888
bounding box (containing cells with vel>maxvel): xmin -12.2949 -1.84794 -0.474554, xmax 0.213786 1.84794 4.09786m 
bounding box of vehicle: xmin -12.2 -1.30007 -5.63784e-18, xmax 2.27682e-18 1.30013 3.6m 
gts area: 163.391 
yplus max: 141.034, yplus min: 0 
position of yplus max: -8.00101 1.27283 3.4931 
yplus prom: 25.5754 
forces: 39133473.933415 -29.457291 -5783508.036804 
Drag coefficient: 10920.755479 
torque (ref. CG): 41.240208 (roll) 19507464.482277 (pitch) 179.689478 (yaw) 
----------------------------------------------------- 
step 2, time 0.001500, maxvel 30.000000, total vol 183256, vol(u>maxvel) 7.29365, cell count 778225
bounding box (containing cells with vel>maxvel): xmin -12.3001 -1.87886 -0.474564, xmax 0.245015 1.87886 4.09786m 
bounding box of vehicle: xmin -12.2 -1.30007 -5.63784e-18, xmax 2.27682e-18 1.30013 3.6m 
gts area: 163.391 
yplus max: 148.787, yplus min: 1.60449 
position of yplus max: -12.0258 -1.29323 0.0340221 
yplus prom: 23.4987 
forces: 767918.086028 -1.136757 -93743.967447 
Drag coefficient: 214.298523 
torque (ref. CG): 1.591459 (roll) 503247.119011 (pitch) 6.934215 (yaw) 
----------------------------------------------------- 
step 3, time 0.002250, maxvel 30.000000, total vol 183256, vol(u>maxvel) 7.29868, cell count 797116
bounding box (containing cells with vel>maxvel): xmin -12.2998 -1.87875 -0.474564, xmax 0.24531 1.87875 4.09786m 
bounding box of vehicle: xmin -12.2 -1.30007 -5.63784e-18, xmax 2.27682e-18 1.30013 3.6m 
gts area: 163.391 
yplus max: 158.584, yplus min: 1.58616 
position of yplus max: -12.0258 -1.29323 0.0340221 
yplus prom: 23.2266 
forces: 14518.227580 0.084505 -2483.558670 
Drag coefficient: 4.051519 
torque (ref. CG): -0.118307 (roll) 5175.810727 (pitch) -0.515480 (yaw) 
----------------------------------------------------- 
step 4, time 0.003000, maxvel 30.000000, total vol 183256, vol(u>maxvel) 7.29088, cell count 808206
bounding box (containing cells with vel>maxvel): xmin -12.2937 -1.87858 -0.474559, xmax 0.275443 1.87858 4.09784m 
bounding box of vehicle: xmin -12.2 -1.30007 -5.63784e-18, xmax 2.27682e-18 1.30013 3.6m 
gts area: 163.391 
yplus max: 161.404, yplus min: 1.58413 
position of yplus max: -12.0258 -1.29323 0.0340221 
yplus prom: 23.1872 
forces: 2095.783826 -0.081404 -825.410615 
Drag coefficient: 0.584858 
torque (ref. CG): 0.113965 (roll) -2100.907397 (pitch) 0.496562 (yaw) 
----------------------------------------------------- 
step 5, time 0.003750, maxvel 30.000000, total vol 183256, vol(u>maxvel) 7.27687, cell count 815112
bounding box (containing cells with vel>maxvel): xmin -12.293 -1.87831 -0.474559, xmax 0.275651 1.87831 4.09784m 
bounding box of vehicle: xmin -12.2 -1.30007 -5.63784e-18, xmax 2.27682e-18 1.30013 3.6m 
gts area: 163.391 
yplus max: 162.781, yplus min: 1.56299 
position of yplus max: -12.0258 -1.29323 0.0340221 
yplus prom: 23.099 
forces: 1950.115253 0.105406 -847.501692 
Drag coefficient: 0.544208 
torque (ref. CG): -0.147568 (roll) -2439.598970 (pitch) -0.642975 (yaw) 
----------------------------------------------------- 
step 6, time 0.004500, maxvel 30.000000, total vol 183256, vol(u>maxvel) 7.26687, cell count 822265
bounding box (containing cells with vel>maxvel): xmin -12.2799 -1.84794 -0.474559, xmax 0.276137 1.84794 4.03591m 
bounding box of vehicle: xmin -12.2 -1.30007 -5.63784e-18, xmax 2.27682e-18 1.30013 3.6m 
gts area: 163.391 
yplus max: 163.657, yplus min: 1.53844 
position of yplus max: -12.0258 -1.29323 0.0340221 
yplus prom: 23.0146 
forces: 2067.526415 -0.041986 -855.941625 
Drag coefficient: 0.576973 
torque (ref. CG): 0.058781 (roll) -2326.706930 (pitch) 0.256117 (yaw) 
----------------------------------------------------- 
step 7, time 0.005250, maxvel 30.000000, total vol 183256, vol(u>maxvel) 7.26252, cell count 830794
bounding box (containing cells with vel>maxvel): xmin -12.2799 -1.84787 -0.474559, xmax 0.276646 1.84787 4.03589m 
bounding box of vehicle: xmin -12.2 -1.30007 -5.63784e-18, xmax 2.27682e-18 1.30013 3.6m 
gts area: 163.391 
yplus max: 164.243, yplus min: 1.06744 
position of yplus max: -12.0258 -1.29323 0.0340221 
yplus prom: 22.9632 
forces: 2171.205999 0.016585 -854.915497 
Drag coefficient: 0.605906 
torque (ref. CG): -0.023220 (roll) -2175.296135 (pitch) -0.101171 (yaw) 
----------------------------------------------------- 
step 8, time 0.006000, maxvel 30.000000, total vol 183256, vol(u>maxvel) 7.26255, cell count 836453
bounding box (containing cells with vel>maxvel): xmin -12.2794 -1.84783 -0.474554, xmax 0.306455 1.84783 4.03589m 
bounding box of vehicle: xmin -12.2 -1.30007 -5.63784e-18, xmax 2.27682e-18 1.30013 3.6m 
gts area: 163.391 
yplus max: 164.636, yplus min: 1.05807 
position of yplus max: -12.0258 -1.29323 0.0340221 
yplus prom: 22.9279 
forces: 2260.353548 0.026873 -852.980920 
Drag coefficient: 0.630784 
torque (ref. CG): -0.037622 (roll) -2038.688642 (pitch) -0.163926 (yaw) 
----------------------------------------------------- 
step 9, time 0.006750, maxvel 30.000000, total vol 183256, vol(u>maxvel) 7.25929, cell count 841468
bounding box (containing cells with vel>maxvel): xmin -12.2793 -1.84776 -0.474554, xmax 0.306643 1.84776 4.03589m 
bounding box of vehicle: xmin -12.2 -1.30007 -5.63784e-18, xmax 2.27682e-18 1.30013 3.6m 
gts area: 163.391 
yplus max: 164.904, yplus min: 1.45137 
position of yplus max: -12.0258 -1.29323 0.0340221 
yplus prom: 22.905 
forces: 2339.013470 0.013287 -850.643077 
Drag coefficient: 0.652735 
torque (ref. CG): -0.018602 (roll) -1914.303912 (pitch) -0.081053 (yaw) 
----------------------------------------------------- 
step 10, time 0.007500, maxvel 30.000000, total vol 183256, vol(u>maxvel) 7.25381, cell count 844881
bounding box (containing cells with vel>maxvel): xmin -12.2793 -1.84769 -0.474554, xmax 0.306828 1.84769 4.03589m 
bounding box of vehicle: xmin -12.2 -1.30007 -5.63784e-18, xmax 2.27682e-18 1.30013 3.6m 
gts area: 163.391 
yplus max: 165.096, yplus min: 1.42789 
position of yplus max: -12.0258 -1.29323 0.0340221 
yplus prom: 22.8905 
forces: 2409.723802 0.016073 -848.836724 
Drag coefficient: 0.672468 
torque (ref. CG): -0.022503 (roll) -1804.290690 (pitch) -0.098047 (yaw) 
----------------------------------------------------- 
step 11, time 0.008250, maxvel 30.000000, total vol 183256, vol(u>maxvel) 7.25898, cell count 848461
bounding box (containing cells with vel>maxvel): xmin -12.2798 -1.84761 -0.474554, xmax 0.307654 1.84761 4.03589m 
bounding box of vehicle: xmin -12.2 -1.30007 -5.63784e-18, xmax 2.27682e-18 1.30013 3.6m 
gts area: 163.391 
yplus max: 165.244, yplus min: 1.40847 
position of yplus max: -12.0258 -1.29323 0.0340221 
yplus prom: 22.8809 
forces: 2473.309136 0.011667 -847.422098 
Drag coefficient: 0.690212 
torque (ref. CG): -0.016334 (roll) -1706.642008 (pitch) -0.071170 (yaw) 
----------------------------------------------------- 
step 12, time 0.009000, maxvel 30.000000, total vol 183256, vol(u>maxvel) 7.26351, cell count 852028
bounding box (containing cells with vel>maxvel): xmin -12.2799 -1.84753 -0.474554, xmax 0.337163 1.84753 4.03589m 
bounding box of vehicle: xmin -12.2 -1.30007 -5.63784e-18, xmax 2.27682e-18 1.30013 3.6m 
gts area: 163.391 
yplus max: 165.367, yplus min: 1.02245 
position of yplus max: -12.0258 -1.29323 0.0340221 
yplus prom: 22.8738 
forces: 2529.900944 0.011591 -846.301123 
Drag coefficient: 0.706005 
torque (ref. CG): -0.016227 (roll) -1620.575525 (pitch) -0.070704 (yaw) 
----------------------------------------------------- 
step 13, time 0.009750, maxvel 30.000000, total vol 183256, vol(u>maxvel) 7.26709, cell count 854399
bounding box (containing cells with vel>maxvel): xmin -12.2799 -1.8474 -0.474554, xmax 0.337548 1.8474 4.03589m 
bounding box of vehicle: xmin -12.2 -1.30007 -5.63784e-18, xmax 2.27682e-18 1.30013 3.6m 
gts area: 163.391 
yplus max: 165.478, yplus min: 0.62238 
position of yplus max: -12.0258 -1.29323 0.0340221 
yplus prom: 22.8675 
forces: 2579.240129 0.015320 -845.436911 
Drag coefficient: 0.719774 
torque (ref. CG): -0.021448 (roll) -1546.228975 (pitch) -0.093452 (yaw) 
----------------------------------------------------- 
step 14, time 0.010500, maxvel 30.000000, total vol 183256, vol(u>maxvel) 7.27072, cell count 855177
bounding box (containing cells with vel>maxvel): xmin -12.2799 -1.84717 -0.474554, xmax 0.337739 1.84717 4.03587m 
bounding box of vehicle: xmin -12.2 -1.30007 -5.63784e-18, xmax 2.27682e-18 1.30013 3.6m 
gts area: 163.391 
yplus max: 165.585, yplus min: 1.3194 
position of yplus max: -12.0258 -1.29323 0.0340221 
yplus prom: 22.8612 
forces: 2622.389773 0.016985 -844.652391 
Drag coefficient: 0.731815 
torque (ref. CG): -0.023779 (roll) -1481.033906 (pitch) -0.103610 (yaw) 
----------------------------------------------------- 
step 15, time 0.011250, maxvel 30.000000, total vol 183256, vol(u>maxvel) 7.28034, cell count 856638
bounding box (containing cells with vel>maxvel): xmin -12.2799 -1.81691 -0.474552, xmax 0.338557 1.81691 4.03587m 
bounding box of vehicle: xmin -12.2 -1.30007 -5.63784e-18, xmax 2.27682e-18 1.30013 3.6m 
gts area: 163.391 
yplus max: 165.689, yplus min: 1.2855 
position of yplus max: -12.0258 -1.29323 0.0340221 
yplus prom: 22.8543 
forces: 2658.618320 0.020584 -843.974217 
Drag coefficient: 0.741925 
torque (ref. CG): -0.028818 (roll) -1426.177075 (pitch) -0.125562 (yaw) 
----------------------------------------------------- 
step 16, time 0.012000, maxvel 30.000000, total vol 183256, vol(u>maxvel) 7.28334, cell count 857736
bounding box (containing cells with vel>maxvel): xmin -12.2803 -1.81688 -0.474552, xmax 0.338743 1.81688 4.03587m 
bounding box of vehicle: xmin -12.2 -1.30007 -5.63784e-18, xmax 2.27682e-18 1.30013 3.6m 
gts area: 163.391 
yplus max: 165.791, yplus min: 1.23488 
position of yplus max: -12.0258 -1.29323 0.0340221 
yplus prom: 22.8469 
forces: 2690.634918 0.015737 -843.080206 
Drag coefficient: 0.750860 
torque (ref. CG): -0.022032 (roll) -1375.900370 (pitch) -0.095995 (yaw) 
----------------------------------------------------- 
step 17, time 0.012750, maxvel 30.000000, total vol 183256, vol(u>maxvel) 7.28594, cell count 858479
bounding box (containing cells with vel>maxvel): xmin -12.2803 -1.81684 -0.474552, xmax 0.338833 1.81684 4.03587m 
bounding box of vehicle: xmin -12.2 -1.30007 -5.63784e-18, xmax 2.27682e-18 1.30013 3.6m 
gts area: 163.391 
yplus max: 165.892, yplus min: 1.1918 
position of yplus max: -12.0258 -1.29323 0.0340221 
yplus prom: 22.8389 
forces: 2718.031631 0.020264 -842.450143 
Drag coefficient: 0.758506 
torque (ref. CG): -0.028370 (roll) -1333.701589 (pitch) -0.123612 (yaw) 
----------------------------------------------------- 
step 18, time 0.013500, maxvel 30.000000, total vol 183256, vol(u>maxvel) 7.29503, cell count 858775
bounding box (containing cells with vel>maxvel): xmin -12.2803 -1.81681 -0.474554, xmax 0.36859 1.81681 4.03587m 
bounding box of vehicle: xmin -12.2 -1.30007 -5.63784e-18, xmax 2.27682e-18 1.30013 3.6m 
gts area: 163.391 
yplus max: 165.99, yplus min: 1.15953 
position of yplus max: -12.0258 -1.29323 0.0340221 
yplus prom: 22.8303 
forces: 2739.906098 0.021991 -842.115644 
Drag coefficient: 0.764610 
torque (ref. CG): -0.030787 (roll) -1301.036893 (pitch) -0.134145 (yaw) 
----------------------------------------------------- 
step 19, time 0.014250, maxvel 30.000000, total vol 183256, vol(u>maxvel) 7.29796, cell count 858582
bounding box (containing cells with vel>maxvel): xmin -12.2803 -1.81677 -0.474554, xmax 0.369376 1.81677 4.03587m 
bounding box of vehicle: xmin -12.2 -1.30007 -5.63784e-18, xmax 2.27682e-18 1.30013 3.6m 
gts area: 163.391 
yplus max: 166.083, yplus min: 1.1412 
position of yplus max: -12.0258 -1.29323 0.0340221 
yplus prom: 22.8213 
forces: 2756.475204 0.021803 -841.856151 
Drag coefficient: 0.769234 
torque (ref. CG): -0.030524 (roll) -1276.257237 (pitch) -0.132998 (yaw) 
----------------------------------------------------- 
step 20, time 0.015000, maxvel 30.000000, total vol 183256, vol(u>maxvel) 7.30671, cell count 858793
bounding box (containing cells with vel>maxvel): xmin -12.2803 -1.81674 -0.474554, xmax 0.369668 1.81674 4.03587m 
bounding box of vehicle: xmin -12.2 -1.30007 -5.63784e-18, xmax 2.27682e-18 1.30013 3.6m 
gts area: 163.391 
yplus max: 166.172, yplus min: 1.13884 
position of yplus max: -12.0258 -1.29323 0.0340221 
yplus prom: 22.8117 
forces: 2768.846453 0.019026 -841.766693 
Drag coefficient: 0.772686 
torque (ref. CG): -0.026636 (roll) -1258.391795 (pitch) -0.116058 (yaw) 
----------------------------------------------------- 
step 21, time 0.015750, maxvel 30.000000, total vol 183256, vol(u>maxvel) 7.31309, cell count 858774
bounding box (containing cells with vel>maxvel): xmin -12.2803 -1.8167 -0.474554, xmax 0.369789 1.8167 4.03587m 
bounding box of vehicle: xmin -12.2 -1.30007 -5.63784e-18, xmax 2.27682e-18 1.30013 3.6m 
gts area: 163.391 
yplus max: 166.256, yplus min: 1.09768 
position of yplus max: -12.0258 -1.29323 0.0340221 
yplus prom: 22.8015 
forces: 2777.827761 0.018868 -841.813725 
Drag coefficient: 0.775193 
torque (ref. CG): -0.026415 (roll) -1246.104856 (pitch) -0.115092 (yaw) 
----------------------------------------------------- 
step 22, time 0.016500, maxvel 30.000000, total vol 183256, vol(u>maxvel) 7.31725, cell count 858444
bounding box (containing cells with vel>maxvel): xmin -12.2804 -1.81667 -0.474554, xmax 0.372338 1.81667 4.03587m 
bounding box of vehicle: xmin -12.2 -1.30007 -5.63784e-18, xmax 2.27682e-18 1.30013 3.6m 
gts area: 163.391 
yplus max: 166.333, yplus min: 1.02267 
position of yplus max: -12.0258 -1.29323 0.0340221 
yplus prom: 22.7908 
forces: 2783.580371 0.017082 -842.051819 
Drag coefficient: 0.776798 
torque (ref. CG): -0.023914 (roll) -1239.503578 (pitch) -0.104198 (yaw) 
----------------------------------------------------- 
step 23, time 0.017250, maxvel 30.000000, total vol 183256, vol(u>maxvel) 7.32137, cell count 857726
bounding box (containing cells with vel>maxvel): xmin -12.2806 -1.81663 -0.474554, xmax 0.399653 1.81663 4.03587m 
bounding box of vehicle: xmin -12.2 -1.30007 -5.63784e-18, xmax 2.27682e-18 1.30013 3.6m 
gts area: 163.391 
yplus max: 166.405, yplus min: 0.965932 
position of yplus max: -12.0258 -1.29323 0.0340221 
yplus prom: 22.7794 
forces: 2786.454168 0.019328 -842.337678 
Drag coefficient: 0.777600 
torque (ref. CG): -0.027060 (roll) -1237.224002 (pitch) -0.117903 (yaw) 
----------------------------------------------------- 
step 24, time 0.018000, maxvel 30.000000, total vol 183256, vol(u>maxvel) 7.33259, cell count 857226
bounding box (containing cells with vel>maxvel): xmin -12.2806 -1.81659 -0.474554, xmax 0.400628 1.81659 4.03587m 
bounding box of vehicle: xmin -12.2 -1.30007 -5.63784e-18, xmax 2.27682e-18 1.30013 3.6m 
gts area: 163.391 
yplus max: 166.471, yplus min: 0.939595 
position of yplus max: -12.0258 -1.29323 0.0340221 
yplus prom: 22.7675 
forces: 2786.946523 0.012212 -842.715548 
Drag coefficient: 0.777737 
torque (ref. CG): -0.017097 (roll) -1238.839712 (pitch) -0.074493 (yaw) 
----------------------------------------------------- 
step 25, time 0.018750, maxvel 30.000000, total vol 183256, vol(u>maxvel) 7.33165, cell count 855776
bounding box (containing cells with vel>maxvel): xmin -12.2806 -1.81652 -0.474554, xmax 0.400782 1.81652 4.03564m 
bounding box of vehicle: xmin -12.2 -1.30007 -5.63784e-18, xmax 2.27682e-18 1.30013 3.6m 
gts area: 163.391 
yplus max: 166.532, yplus min: 0.950805 
position of yplus max: -12.0258 -1.29323 0.0340221 
yplus prom: 22.7551 
forces: 2785.222263 0.023448 -843.282182 
Drag coefficient: 0.777256 
torque (ref. CG): -0.032828 (roll) -1244.710144 (pitch) -0.143035 (yaw) 
----------------------------------------------------- 
step 26, time 0.019500, maxvel 30.000000, total vol 183256, vol(u>maxvel) 7.33376, cell count 854677
bounding box (containing cells with vel>maxvel): xmin -12.2806 -1.81644 -0.474559, xmax 0.403387 1.81644 4.03564m 
bounding box of vehicle: xmin -12.2 -1.30007 -5.63784e-18, xmax 2.27682e-18 1.30013 3.6m 
gts area: 163.391 
yplus max: 166.588, yplus min: 0.755514 
position of yplus max: -12.0258 -1.29323 0.0340221 
yplus prom: 22.742 
forces: 2782.241260 0.015159 -843.879982 
Drag coefficient: 0.776424 
torque (ref. CG): -0.021223 (roll) -1252.530128 (pitch) -0.092470 (yaw) 
----------------------------------------------------- 
step 27, time 0.020250, maxvel 30.000000, total vol 183256, vol(u>maxvel) 7.33262, cell count 853279
bounding box (containing cells with vel>maxvel): xmin -12.2806 -1.81631 -0.474559, xmax 0.430498 1.81631 4.03564m 
bounding box of vehicle: xmin -12.2 -1.30007 -5.63784e-18, xmax 2.27682e-18 1.30013 3.6m 
gts area: 163.391 
yplus max: 166.64, yplus min: 0.797531 
position of yplus max: -12.0258 -1.29323 0.0340221 
yplus prom: 22.7286 
forces: 2778.033910 0.023273 -844.391753 
Drag coefficient: 0.775250 
torque (ref. CG): -0.032582 (roll) -1261.542217 (pitch) -0.141966 (yaw) 
----------------------------------------------------- 
step 28, time 0.021000, maxvel 30.000000, total vol 183256, vol(u>maxvel) 7.33594, cell count 851747
bounding box (containing cells with vel>maxvel): xmin -12.2807 -1.8162 -0.47499, xmax 0.431599 1.8162 4.03564m 
bounding box of vehicle: xmin -12.2 -1.30007 -5.63784e-18, xmax 2.27682e-18 1.30013 3.6m 
gts area: 163.391 
yplus max: 166.688, yplus min: 0.764949 
position of yplus max: -12.0258 -1.29323 0.0340221 
yplus prom: 22.7148 
forces: 2772.653282 0.026844 -845.048599 
Drag coefficient: 0.773749 
torque (ref. CG): -0.037581 (roll) -1273.081857 (pitch) -0.163747 (yaw) 
----------------------------------------------------- 
step 29, time 0.021750, maxvel 30.000000, total vol 183256, vol(u>maxvel) 7.33533, cell count 849746
bounding box (containing cells with vel>maxvel): xmin -12.2807 -1.81541 -0.47499, xmax 0.434103 1.81541 4.03274m 
bounding box of vehicle: xmin -12.2 -1.30007 -5.63784e-18, xmax 2.27682e-18 1.30013 3.6m 
gts area: 163.391 
yplus max: 166.733, yplus min: 0.812476 
position of yplus max: -12.0258 -1.29323 0.0340221 
yplus prom: 22.7007 
forces: 2766.461838 0.010873 -845.613024 
Drag coefficient: 0.772021 
torque (ref. CG): -0.015222 (roll) -1285.192875 (pitch) -0.066325 (yaw) 
----------------------------------------------------- 
step 30, time 0.022500, maxvel 30.000000, total vol 183256, vol(u>maxvel) 7.33211, cell count 847752
bounding box (containing cells with vel>maxvel): xmin -12.2807 -1.81413 -0.47499, xmax 0.434435 1.81413 4.03274m 
bounding box of vehicle: xmin -12.2 -1.30007 -5.63784e-18, xmax 2.27682e-18 1.30013 3.6m 
gts area: 163.391 
yplus max: 166.775, yplus min: 0.677433 
position of yplus max: -12.0258 -1.29323 0.0340221 
yplus prom: 22.6866 
forces: 2759.206510 0.017700 -845.982004 
Drag coefficient: 0.769996 
torque (ref. CG): -0.024780 (roll) -1297.601107 (pitch) -0.107971 (yaw) 
----------------------------------------------------- 
step 31, time 0.023250, maxvel 30.000000, total vol 183256, vol(u>maxvel) 7.32981, cell count 845701
bounding box (containing cells with vel>maxvel): xmin -12.2807 -1.78579 -0.47499, xmax 0.436472 1.78579 4.03274m 
bounding box of vehicle: xmin -12.2 -1.30007 -5.63784e-18, xmax 2.27682e-18 1.30013 3.6m 
gts area: 163.391 
yplus max: 166.815, yplus min: 0.602879 
position of yplus max: -12.0258 -1.29323 0.0340221 
yplus prom: 22.6722 
forces: 2751.653588 0.012121 -846.301674 
Drag coefficient: 0.767888 
torque (ref. CG): -0.016970 (roll) -1310.125189 (pitch) -0.073940 (yaw) 
----------------------------------------------------- 
step 32, time 0.024000, maxvel 30.000000, total vol 183256, vol(u>maxvel) 7.32656, cell count 843529
bounding box (containing cells with vel>maxvel): xmin -12.2807 -1.78572 -0.47499, xmax 0.462606 1.78572 3.98938m 
bounding box of vehicle: xmin -12.2 -1.30007 -5.63784e-18, xmax 2.27682e-18 1.30013 3.6m 
gts area: 163.391 
yplus max: 166.851, yplus min: 0.697349 
position of yplus max: -12.0258 -1.29323 0.0340221 
yplus prom: 22.6579 
forces: 2743.961225 0.014053 -846.643909 
Drag coefficient: 0.765742 
torque (ref. CG): -0.019674 (roll) -1322.982128 (pitch) -0.085724 (yaw) 
----------------------------------------------------- 
step 33, time 0.024750, maxvel 30.000000, total vol 183256, vol(u>maxvel) 7.32361, cell count 841655
bounding box (containing cells with vel>maxvel): xmin -12.2807 -1.78569 -0.47499, xmax 0.465235 1.78569 3.98938m 
bounding box of vehicle: xmin -12.2 -1.30007 -5.63784e-18, xmax 2.27682e-18 1.30013 3.6m 
gts area: 163.391 
yplus max: 166.886, yplus min: 0.490694 
position of yplus max: -12.0258 -1.29323 0.0340221 
yplus prom: 22.6437 
forces: 2736.267647 0.013662 -847.053423 
Drag coefficient: 0.763595 
torque (ref. CG): -0.019127 (roll) -1336.251177 (pitch) -0.083340 (yaw) 
----------------------------------------------------- 
step 34, time 0.025500, maxvel 30.000000, total vol 183256, vol(u>maxvel) 7.31884, cell count 839399
bounding box (containing cells with vel>maxvel): xmin -12.2807 -1.78562 -0.47499, xmax 0.467286 1.78562 3.98936m 
bounding box of vehicle: xmin -12.2 -1.30007 -5.63784e-18, xmax 2.27682e-18 1.30013 3.6m 
gts area: 163.391 
yplus max: 166.918, yplus min: 0.512078 
position of yplus max: -12.0258 -1.29323 0.0340221 
yplus prom: 22.6296 
forces: 2728.498733 0.011203 -847.519848 
Drag coefficient: 0.761427 
torque (ref. CG): -0.015685 (roll) -1349.972845 (pitch) -0.068340 (yaw) 
----------------------------------------------------- 
step 35, time 0.026250, maxvel 30.000000, total vol 183256, vol(u>maxvel) 7.30503, cell count 836993
bounding box (containing cells with vel>maxvel): xmin -12.2807 -1.78555 -0.47499, xmax 0.467584 1.78555 3.98936m 
bounding box of vehicle: xmin -12.2 -1.30007 -5.63784e-18, xmax 2.27682e-18 1.30013 3.6m 
gts area: 163.391 
yplus max: 166.949, yplus min: 0.374533 
position of yplus max: -12.0258 -1.29323 0.0340221 
yplus prom: 22.6158 
forces: 2720.794789 -0.023983 -848.018166 
Drag coefficient: 0.759277 
torque (ref. CG): 0.033576 (roll) -1363.798110 (pitch) 0.146294 (yaw) 
----------------------------------------------------- 
step 36, time 0.027000, maxvel 30.000000, total vol 183256, vol(u>maxvel) 7.29526, cell count 834260
bounding box (containing cells with vel>maxvel): xmin -12.2807 -1.78548 -0.47499, xmax 0.49365 1.78548 3.98936m 
bounding box of vehicle: xmin -12.2 -1.30007 -5.63784e-18, xmax 2.27682e-18 1.30013 3.6m 
gts area: 163.391 
yplus max: 166.977, yplus min: 0.39412 
position of yplus max: -12.0258 -1.29323 0.0340221 
yplus prom: 22.6023 
forces: 2713.256909 0.013568 -848.357398 
Drag coefficient: 0.757173 
torque (ref. CG): -0.018995 (roll) -1376.420457 (pitch) -0.082765 (yaw) 
----------------------------------------------------- 
step 37, time 0.027750, maxvel 30.000000, total vol 183256, vol(u>maxvel) 7.27958, cell count 831312
bounding box (containing cells with vel>maxvel): xmin -12.2807 -1.7854 -0.47499, xmax 0.496348 1.7854 3.98934m 
bounding box of vehicle: xmin -12.2 -1.30007 -5.63784e-18, xmax 2.27682e-18 1.30013 3.6m 
gts area: 163.391 
yplus max: 167.004, yplus min: 0.387051 
position of yplus max: -12.0258 -1.29323 0.0340221 
yplus prom: 22.5892 
forces: 2705.806541 0.012555 -848.682701 
Drag coefficient: 0.755094 
torque (ref. CG): -0.017578 (roll) -1388.835318 (pitch) -0.076588 (yaw) 
----------------------------------------------------- 
step 38, time 0.028500, maxvel 30.000000, total vol 183256, vol(u>maxvel) 7.26935, cell count 828532
bounding box (containing cells with vel>maxvel): xmin -12.2807 -1.78533 -0.47499, xmax 0.498457 1.78533 3.98934m 
bounding box of vehicle: xmin -12.2 -1.30007 -5.63784e-18, xmax 2.27682e-18 1.30013 3.6m 
gts area: 163.391 
yplus max: 167.029, yplus min: 0.156109 
position of yplus max: -12.0258 -1.29323 0.0340221 
yplus prom: 22.5766 
forces: 2698.540970 0.001705 -849.047316 
Drag coefficient: 0.753066 
torque (ref. CG): -0.002387 (roll) -1401.231268 (pitch) -0.010399 (yaw) 
----------------------------------------------------- 
step 39, time 0.029250, maxvel 30.000000, total vol 183256, vol(u>maxvel) 7.25652, cell count 825150
bounding box (containing cells with vel>maxvel): xmin -12.2807 -1.78517 -0.475423, xmax 0.498651 1.78517 3.9892m 
bounding box of vehicle: xmin -12.2 -1.30007 -5.63784e-18, xmax 2.27682e-18 1.30013 3.6m 
gts area: 163.391 
yplus max: 167.052, yplus min: 0.366119 
position of yplus max: -12.0258 -1.29323 0.0340221 
yplus prom: 22.5645 
forces: 2691.370485 0.020518 -849.109090 
Drag coefficient: 0.751065 
torque (ref. CG): -0.028725 (roll) -1411.646772 (pitch) -0.125158 (yaw) 
----------------------------------------------------- 
step 40, time 0.030000, maxvel 30.000000, total vol 183256, vol(u>maxvel) 7.2417, cell count 822413
bounding box (containing cells with vel>maxvel): xmin -12.2807 -1.78464 -0.475423, xmax 0.526932 1.78464 3.9892m 
bounding box of vehicle: xmin -12.2 -1.30007 -5.63784e-18, xmax 2.27682e-18 1.30013 3.6m 
gts area: 163.391 
yplus max: 167.074, yplus min: 0.479476 
position of yplus max: -12.0258 -1.29323 0.0340221 
yplus prom: 22.5525 
forces: 2684.036641 0.000560 -849.279834 
Drag coefficient: 0.749019 
torque (ref. CG): -0.000784 (roll) -1422.955687 (pitch) -0.003415 (yaw) 
----------------------------------------------------- 
step 41, time 0.030750, maxvel 30.000000, total vol 183256, vol(u>maxvel) 7.2262, cell count 819211
bounding box (containing cells with vel>maxvel): xmin -12.2807 -1.78457 -0.475423, xmax 0.529243 1.78457 3.9892m 
bounding box of vehicle: xmin -12.2 -1.30007 -5.63784e-18, xmax 2.27682e-18 1.30013 3.6m 
gts area: 163.391 
yplus max: 167.094, yplus min: 0.55734 
position of yplus max: -12.0258 -1.29323 0.0340221 
yplus prom: 22.5408 
forces: 2676.769158 0.005212 -849.273064 
Drag coefficient: 0.746991 
torque (ref. CG): -0.007296 (roll) -1433.088872 (pitch) -0.031792 (yaw) 
----------------------------------------------------- 
step 42, time 0.031500, maxvel 30.000000, total vol 183256, vol(u>maxvel) 7.20937, cell count 816036
bounding box (containing cells with vel>maxvel): xmin -12.2807 -1.78445 -0.475423, xmax 0.529538 1.78445 3.98702m 
bounding box of vehicle: xmin -12.2 -1.30007 -5.63784e-18, xmax 2.27682e-18 1.30013 3.6m 
gts area: 163.391 
yplus max: 167.112, yplus min: 0.552725 
position of yplus max: -12.0258 -1.29323 0.0340221 
yplus prom: 22.5294 
forces: 2669.509363 0.036520 -849.215622 
Drag coefficient: 0.744965 
torque (ref. CG): -0.051128 (roll) -1442.902184 (pitch) -0.222772 (yaw) 
----------------------------------------------------- 
step 43, time 0.032250, maxvel 30.000000, total vol 183256, vol(u>maxvel) 7.19168, cell count 812904
bounding box (containing cells with vel>maxvel): xmin -12.2807 -1.78419 -0.475423, xmax 0.529701 1.78419 3.98702m 
bounding box of vehicle: xmin -12.2 -1.30007 -5.63784e-18, xmax 2.27682e-18 1.30013 3.6m 
gts area: 163.391 
yplus max: 167.129, yplus min: 0.282844 
position of yplus max: -12.0258 -1.29323 0.0340221 
yplus prom: 22.5182 
forces: 2662.042474 0.012903 -849.270618 
Drag coefficient: 0.742881 
torque (ref. CG): -0.018064 (roll) -1453.691308 (pitch) -0.078707 (yaw) 
----------------------------------------------------- 
step 44, time 0.033000, maxvel 30.000000, total vol 183256, vol(u>maxvel) 7.16943, cell count 809260
bounding box (containing cells with vel>maxvel): xmin -12.2807 -1.77959 -0.475423, xmax 0.558161 1.77959 3.98702m 
bounding box of vehicle: xmin -12.2 -1.30007 -5.63784e-18, xmax 2.27682e-18 1.30013 3.6m 
gts area: 163.391 
yplus max: 167.144, yplus min: 0.310268 
position of yplus max: -12.0258 -1.29323 0.0340221 
yplus prom: 22.5074 
forces: 2654.677831 0.012338 -849.166959 
Drag coefficient: 0.740826 
torque (ref. CG): -0.017274 (roll) -1463.369485 (pitch) -0.075264 (yaw) 
----------------------------------------------------- 
step 45, time 0.033750, maxvel 30.000000, total vol 183256, vol(u>maxvel) 7.15969, cell count 806030
bounding box (containing cells with vel>maxvel): xmin -12.2807 -1.77939 -0.475423, xmax 0.560376 1.77939 3.98416m 
bounding box of vehicle: xmin -12.2 -1.30007 -5.63784e-18, xmax 2.27682e-18 1.30013 3.6m 
gts area: 163.391 
yplus max: 167.159, yplus min: 0.516529 
position of yplus max: -12.0258 -1.29323 0.0340221 
yplus prom: 22.4973 
forces: 2647.151110 0.011254 -849.109698 
Drag coefficient: 0.738725 
torque (ref. CG): -0.015756 (roll) -1473.557601 (pitch) -0.068651 (yaw) 
----------------------------------------------------- 
step 46, time 0.034500, maxvel 30.000000, total vol 183256, vol(u>maxvel) 7.14565, cell count 802327
bounding box (containing cells with vel>maxvel): xmin -12.2807 -1.75426 -0.475423, xmax 0.56063 1.75426 3.98416m 
bounding box of vehicle: xmin -12.2 -1.30007 -5.63784e-18, xmax 2.27682e-18 1.30013 3.6m 
gts area: 163.391 
yplus max: 167.171, yplus min: 0.606526 
position of yplus max: -12.0258 -1.29323 0.0340221 
yplus prom: 22.4873 
forces: 2639.368719 -0.010660 -849.131637 
Drag coefficient: 0.736554 
torque (ref. CG): 0.014924 (roll) -1484.586781 (pitch) 0.065027 (yaw) 
----------------------------------------------------- 
step 47, time 0.035250, maxvel 30.000000, total vol 183256, vol(u>maxvel) 7.13798, cell count 799440
bounding box (containing cells with vel>maxvel): xmin -12.281 -1.75398 -0.475423, xmax 0.560761 1.75398 3.98416m 
bounding box of vehicle: xmin -12.2 -1.30007 -5.63784e-18, xmax 2.27682e-18 1.30013 3.6m 
gts area: 163.391 
yplus max: 167.183, yplus min: 0.835414 
position of yplus max: -12.0258 -1.29323 0.0340221 
yplus prom: 22.4773 
forces: 2631.928854 0.027984 -848.852650 
Drag coefficient: 0.734477 
torque (ref. CG): -0.039177 (roll) -1493.300772 (pitch) -0.170700 (yaw) 
----------------------------------------------------- 
step 48, time 0.036000, maxvel 30.000000, total vol 183256, vol(u>maxvel) 7.12656, cell count 796248
bounding box (containing cells with vel>maxvel): xmin -12.281 -1.75393 -0.475423, xmax 0.591056 1.75393 3.98303m 
bounding box of vehicle: xmin -12.2 -1.30007 -5.63784e-18, xmax 2.27682e-18 1.30013 3.6m 
gts area: 163.391 
yplus max: 167.194, yplus min: 1.1177 
position of yplus max: -12.0258 -1.29323 0.0340221 
yplus prom: 22.4674 
forces: 2624.077756 0.012176 -848.786513 
Drag coefficient: 0.732286 
torque (ref. CG): -0.017047 (roll) -1503.888870 (pitch) -0.074275 (yaw) 
----------------------------------------------------- 
step 49, time 0.036750, maxvel 30.000000, total vol 183256, vol(u>maxvel) 7.11194, cell count 793104
bounding box (containing cells with vel>maxvel): xmin -12.281 -1.75393 -0.475423, xmax 0.591478 1.75393 3.98303m 
bounding box of vehicle: xmin -12.2 -1.30007 -5.63784e-18, xmax 2.27682e-18 1.30013 3.6m 
gts area: 163.391 
yplus max: 167.204, yplus min: 1.01713 
position of yplus max: -12.0258 -1.29323 0.0340221 
yplus prom: 22.4575 
forces: 2616.408055 -0.001839 -848.657558 
Drag coefficient: 0.730146 
torque (ref. CG): 0.002574 (roll) -1513.839829 (pitch) 0.011216 (yaw) 
----------------------------------------------------- 
step 50, time 0.037500, maxvel 30.000000, total vol 183256, vol(u>maxvel) 7.10337, cell count 789664
bounding box (containing cells with vel>maxvel): xmin -12.281 -1.75388 -0.475764, xmax 0.59167 1.75388 3.98285m 
bounding box of vehicle: xmin -12.2 -1.30007 -5.63784e-18, xmax 2.27682e-18 1.30013 3.6m 
gts area: 163.391 
yplus max: 167.213, yplus min: 0.872135 
position of yplus max: -12.0258 -1.29323 0.0340221 
yplus prom: 22.4476 
forces: 2608.556597 0.035721 -848.404684 
Drag coefficient: 0.727955 
torque (ref. CG): -0.050010 (roll) -1523.289338 (pitch) -0.217900 (yaw) 
----------------------------------------------------- 
step 51, time 0.038250, maxvel 30.000000, total vol 183256, vol(u>maxvel) 7.09227, cell count 786416
bounding box (containing cells with vel>maxvel): xmin -12.281 -1.75388 -0.475764, xmax 0.591856 1.75388 3.9828m 
bounding box of vehicle: xmin -12.2 -1.30007 -5.63784e-18, xmax 2.27682e-18 1.30013 3.6m 
gts area: 163.391 
yplus max: 167.221, yplus min: 0.664111 
position of yplus max: -12.0258 -1.29323 0.0340221 
yplus prom: 22.4376 
forces: 2600.725398 0.007555 -848.253585 
Drag coefficient: 0.725770 
torque (ref. CG): -0.010576 (roll) -1533.331313 (pitch) -0.046083 (yaw) 
----------------------------------------------------- 
step 52, time 0.039000, maxvel 30.000000, total vol 183256, vol(u>maxvel) 7.07856, cell count 782800
bounding box (containing cells with vel>maxvel): xmin -12.281 -1.75384 -0.475764, xmax 0.622261 1.75384 3.95604m 
bounding box of vehicle: xmin -12.2 -1.30007 -5.63784e-18, xmax 2.27682e-18 1.30013 3.6m 
gts area: 163.391 
yplus max: 167.228, yplus min: 0.284011 
position of yplus max: -12.0258 -1.29323 0.0340221 
yplus prom: 22.4277 
forces: 2592.877850 0.009704 -848.065524 
Drag coefficient: 0.723580 
torque (ref. CG): -0.013585 (roll) -1543.170707 (pitch) -0.059193 (yaw) 
----------------------------------------------------- 
step 53, time 0.039750, maxvel 30.000000, total vol 183256, vol(u>maxvel) 7.07344, cell count 779656
bounding box (containing cells with vel>maxvel): xmin -12.281 -1.75383 -0.475764, xmax 0.62255 1.75383 3.95604m 
bounding box of vehicle: xmin -12.2 -1.30007 -5.63784e-18, xmax 2.27682e-18 1.30013 3.6m 
gts area: 163.391 
yplus max: 167.235, yplus min: 0.554574 
position of yplus max: -12.0258 -1.29323 0.0340221 
yplus prom: 22.4179 
forces: 2585.029377 -0.019783 -847.911235 
Drag coefficient: 0.721389 
torque (ref. CG): 0.027696 (roll) -1553.217406 (pitch) 0.120675 (yaw) 
----------------------------------------------------- 
step 54, time 0.040500, maxvel 30.000000, total vol 183256, vol(u>maxvel) 7.058, cell count 776001
bounding box (containing cells with vel>maxvel): xmin -12.281 -1.75382 -0.475764, xmax 0.622741 1.75382 3.95604m 
bounding box of vehicle: xmin -12.2 -1.30007 -5.63784e-18, xmax 2.27682e-18 1.30013 3.6m 
gts area: 163.391 
yplus max: 167.241, yplus min: 0.478316 
position of yplus max: -12.0258 -1.29323 0.0340221 
yplus prom: 22.408 
forces: 2577.260963 0.004299 -847.605554 
Drag coefficient: 0.719222 
torque (ref. CG): -0.006019 (roll) -1562.228532 (pitch) -0.026227 (yaw) 
----------------------------------------------------- 
step 55, time 0.041250, maxvel 30.000000, total vol 183256, vol(u>maxvel) 7.04215, cell count 772737
bounding box (containing cells with vel>maxvel): xmin -12.281 -1.75378 -0.475764, xmax 0.622892 1.75378 3.95604m 
bounding box of vehicle: xmin -12.2 -1.30007 -5.63784e-18, xmax 2.27682e-18 1.30013 3.6m 
gts area: 163.391 
yplus max: 167.246, yplus min: 0.678507 
position of yplus max: -12.0258 -1.29323 0.0340221 
yplus prom: 22.3983 
forces: 2569.447212 0.007898 -847.341991 
Drag coefficient: 0.717041 
torque (ref. CG): -0.011057 (roll) -1571.560046 (pitch) -0.048178 (yaw) 
----------------------------------------------------- 
step 56, time 0.042000, maxvel 30.000000, total vol 183256, vol(u>maxvel) 7.0331, cell count 769016
bounding box (containing cells with vel>maxvel): xmin -12.281 -1.75378 -0.475764, xmax 0.653383 1.75378 3.95604m 
bounding box of vehicle: xmin -12.2 -1.30007 -5.63784e-18, xmax 2.27682e-18 1.30013 3.6m 
gts area: 163.391 
yplus max: 167.251, yplus min: 0.816951 
position of yplus max: -12.0258 -1.29323 0.0340221 
yplus prom: 22.3886 
forces: 2561.620933 0.000571 -847.086502 
Drag coefficient: 0.714857 
torque (ref. CG): -0.000799 (roll) -1580.958356 (pitch) -0.003480 (yaw) 
----------------------------------------------------- 
step 57, time 0.042750, maxvel 30.000000, total vol 183256, vol(u>maxvel) 7.02017, cell count 765859
bounding box (containing cells with vel>maxvel): xmin -12.281 -1.75377 -0.475764, xmax 0.65363 1.75377 3.95604m 
bounding box of vehicle: xmin -12.2 -1.30007 -5.63784e-18, xmax 2.27682e-18 1.30013 3.6m 
gts area: 163.391 
yplus max: 167.255, yplus min: 0.487563 
position of yplus max: -12.0258 -1.29323 0.0340221 
yplus prom: 22.379 
forces: 2553.860970 0.015600 -846.770259 
Drag coefficient: 0.712691 
torque (ref. CG): -0.021841 (roll) -1589.893219 (pitch) -0.095162 (yaw) 
----------------------------------------------------- 
step 58, time 0.043500, maxvel 30.000000, total vol 183256, vol(u>maxvel) 7.00033, cell count 762275
bounding box (containing cells with vel>maxvel): xmin -12.281 -1.75373 -0.475764, xmax 0.653819 1.75373 3.95604m 
bounding box of vehicle: xmin -12.2 -1.30007 -5.63784e-18, xmax 2.27682e-18 1.30013 3.6m 
gts area: 163.391 
yplus max: 167.259, yplus min: 0.784178 
position of yplus max: -12.0258 -1.29323 0.0340221 
yplus prom: 22.3694 
forces: 2546.046038 0.004447 -846.493721 
Drag coefficient: 0.710511 
torque (ref. CG): -0.006226 (roll) -1599.147241 (pitch) -0.027129 (yaw) 
----------------------------------------------------- 
step 59, time 0.044250, maxvel 30.000000, total vol 183256, vol(u>maxvel) 6.98481, cell count 758780
bounding box (containing cells with vel>maxvel): xmin -12.281 -1.75373 -0.475764, xmax 0.653934 1.75373 3.95305m 
bounding box of vehicle: xmin -12.2 -1.30007 -5.63784e-18, xmax 2.27682e-18 1.30013 3.6m 
gts area: 163.391 
yplus max: 167.262, yplus min: 1.03038 
position of yplus max: -12.0258 -1.29323 0.0340221 
yplus prom: 22.3599 
forces: 2538.329865 0.009648 -846.151616 
Drag coefficient: 0.708357 
torque (ref. CG): -0.013507 (roll) -1607.863048 (pitch) -0.058852 (yaw) 
----------------------------------------------------- 
step 60, time 0.045000, maxvel 30.000000, total vol 183256, vol(u>maxvel) 6.9741, cell count 755631
bounding box (containing cells with vel>maxvel): xmin -12.281 -1.75371 -0.475764, xmax 0.684467 1.75371 3.95305m 
bounding box of vehicle: xmin -12.2 -1.30007 -5.63784e-18, xmax 2.27682e-18 1.30013 3.6m 
gts area: 163.391 
yplus max: 167.265, yplus min: 0.652853 
position of yplus max: -12.0258 -1.29323 0.0340221 
yplus prom: 22.3504 
forces: 2530.588489 0.010239 -845.831336 
Drag coefficient: 0.706197 
torque (ref. CG): -0.014334 (roll) -1616.747263 (pitch) -0.062456 (yaw) 
----------------------------------------------------- 
step 61, time 0.045750, maxvel 30.000000, total vol 183256, vol(u>maxvel) 6.95377, cell count 751613
bounding box (containing cells with vel>maxvel): xmin -12.281 -1.75367 -0.475764, xmax 0.684696 1.75367 3.95305m 
bounding box of vehicle: xmin -12.2 -1.30007 -5.63784e-18, xmax 2.27682e-18 1.30013 3.6m 
gts area: 163.391 
yplus max: 167.267, yplus min: 0.801447 
position of yplus max: -12.0258 -1.29323 0.0340221 
yplus prom: 22.3409 
forces: 2522.905368 0.010600 -845.488000 
Drag coefficient: 0.704053 
torque (ref. CG): -0.014840 (roll) -1625.409284 (pitch) -0.064659 (yaw) 
----------------------------------------------------- 
step 62, time 0.046500, maxvel 30.000000, total vol 183256, vol(u>maxvel) 6.94075, cell count 748251
bounding box (containing cells with vel>maxvel): xmin -12.281 -1.75366 -0.476019, xmax 0.684863 1.75366 3.95305m 
bounding box of vehicle: xmin -12.2 -1.30007 -5.63784e-18, xmax 2.27682e-18 1.30013 3.6m 
gts area: 163.391 
yplus max: 167.27, yplus min: 0.935235 
position of yplus max: -12.0258 -1.29323 0.0340221 
yplus prom: 22.3314 
forces: 2515.254261 0.004816 -845.132928 
Drag coefficient: 0.701918 
torque (ref. CG): -0.006742 (roll) -1633.954895 (pitch) -0.029376 (yaw) 
----------------------------------------------------- 
step 63, time 0.047250, maxvel 30.000000, total vol 183256, vol(u>maxvel) 6.92089, cell count 744450
bounding box (containing cells with vel>maxvel): xmin -12.281 -1.75366 -0.476019, xmax 0.715184 1.75366 3.95305m 
bounding box of vehicle: xmin -12.2 -1.30007 -5.63784e-18, xmax 2.27682e-18 1.30013 3.6m 
gts area: 163.391 
yplus max: 167.272, yplus min: 0.683281 
position of yplus max: -12.0258 -1.29323 0.0340221 
yplus prom: 22.3219 
forces: 2507.671876 0.010179 -844.742375 
Drag coefficient: 0.699802 
torque (ref. CG): -0.014251 (roll) -1642.187859 (pitch) -0.062094 (yaw) 
----------------------------------------------------- 
step 64, time 0.048000, maxvel 30.000000, total vol 183256, vol(u>maxvel) 6.9179, cell count 741138
bounding box (containing cells with vel>maxvel): xmin -12.281 -1.75366 -0.476019, xmax 0.715514 1.75366 3.95305m 
bounding box of vehicle: xmin -12.2 -1.30007 -5.63784e-18, xmax 2.27682e-18 1.30013 3.6m 
gts area: 163.391 
yplus max: 167.273, yplus min: 0.87441 
position of yplus max: -12.0258 -1.29323 0.0340221 
yplus prom: 22.3123 
forces: 2500.128176 0.010365 -844.347831 
Drag coefficient: 0.697697 
torque (ref. CG): -0.014511 (roll) -1650.342322 (pitch) -0.063227 (yaw) 
----------------------------------------------------- 
step 65, time 0.048750, maxvel 30.000000, total vol 183256, vol(u>maxvel) 6.89923, cell count 737430
bounding box (containing cells with vel>maxvel): xmin -12.281 -1.7536 -0.476019, xmax 0.715785 1.7536 3.95198m 
bounding box of vehicle: xmin -12.2 -1.30007 -5.63784e-18, xmax 2.27682e-18 1.30013 3.6m 
gts area: 163.391 
yplus max: 167.275, yplus min: 0.726971 
position of yplus max: -12.0258 -1.29323 0.0340221 
yplus prom: 22.3028 
forces: 2492.648188 0.010464 -843.935994 
Drag coefficient: 0.695609 
torque (ref. CG): -0.014649 (roll) -1658.302104 (pitch) -0.063828 (yaw) 
----------------------------------------------------- 
step 66, time 0.049500, maxvel 30.000000, total vol 183256, vol(u>maxvel) 6.88384, cell count 733984
bounding box (containing cells with vel>maxvel): xmin -12.281 -1.7536 -0.476019, xmax 0.715911 1.7536 3.95197m 
bounding box of vehicle: xmin -12.2 -1.30007 -5.63784e-18, xmax 2.27682e-18 1.30013 3.6m 
gts area: 163.391 
yplus max: 167.276, yplus min: 1.01258 
position of yplus max: -12.0258 -1.29323 0.0340221 
yplus prom: 22.2933 
forces: 2485.228762 0.011848 -843.509327 
Drag coefficient: 0.693539 
torque (ref. CG): -0.016588 (roll) -1666.086627 (pitch) -0.072274 (yaw) 
----------------------------------------------------- 
step 67, time 0.050250, maxvel 30.000000, total vol 183256, vol(u>maxvel) 6.8642, cell count 730612
bounding box (containing cells with vel>maxvel): xmin -12.2811 -1.7536 -0.476019, xmax 0.746281 1.7536 3.95197m 
bounding box of vehicle: xmin -12.2 -1.30007 -5.63784e-18, xmax 2.27682e-18 1.30013 3.6m 
gts area: 163.391 
yplus max: 167.277, yplus min: 0.7669 
position of yplus max: -12.0258 -1.29323 0.0340221 
yplus prom: 22.2837 
forces: 2477.882565 0.009413 -843.068088 
Drag coefficient: 0.691489 
torque (ref. CG): -0.013179 (roll) -1673.679748 (pitch) -0.057421 (yaw) 
----------------------------------------------------- 
step 68, time 0.051000, maxvel 30.000000, total vol 183256, vol(u>maxvel) 6.84493, cell count 726882
bounding box (containing cells with vel>maxvel): xmin -12.2811 -1.7536 -0.476019, xmax 0.74661 1.7536 3.95149m 
bounding box of vehicle: xmin -12.2 -1.30007 -5.63784e-18, xmax 2.27682e-18 1.30013 3.6m 
gts area: 163.391 
yplus max: 167.277, yplus min: 0.780386 
position of yplus max: -12.0258 -1.29323 0.0340221 
yplus prom: 22.2743 
forces: 2470.609381 0.011476 -842.612055 
Drag coefficient: 0.689459 
torque (ref. CG): -0.016066 (roll) -1681.080403 (pitch) -0.070001 (yaw) 
----------------------------------------------------- 
step 69, time 0.051750, maxvel 30.000000, total vol 183256, vol(u>maxvel) 6.82776, cell count 723421
bounding box (containing cells with vel>maxvel): xmin -12.2811 -1.75355 -0.476019, xmax 0.746836 1.75355 3.92748m 
bounding box of vehicle: xmin -12.2 -1.30007 -5.63784e-18, xmax 2.27682e-18 1.30013 3.6m 
gts area: 163.391 
yplus max: 167.278, yplus min: 0.818136 
position of yplus max: -12.0258 -1.29323 0.0340221 
yplus prom: 22.2648 
forces: 2463.410679 0.011370 -842.142009 
Drag coefficient: 0.687450 
torque (ref. CG): -0.015919 (roll) -1688.291304 (pitch) -0.069359 (yaw) 
----------------------------------------------------- 
step 70, time 0.052500, maxvel 30.000000, total vol 183256, vol(u>maxvel) 6.80848, cell count 720068
bounding box (containing cells with vel>maxvel): xmin -12.2811 -1.75355 -0.476019, xmax 0.746965 1.75355 3.92748m 
bounding box of vehicle: xmin -12.2 -1.30007 -5.63784e-18, xmax 2.27682e-18 1.30013 3.6m 
gts area: 163.391 
yplus max: 167.278, yplus min: 0.938676 
position of yplus max: -12.0258 -1.29323 0.0340221 
yplus prom: 22.2553 
forces: 2456.280670 0.011481 -841.660051 
Drag coefficient: 0.685460 
torque (ref. CG): -0.016073 (roll) -1695.333374 (pitch) -0.070033 (yaw) 
----------------------------------------------------- 
step 71, time 0.053250, maxvel 30.000000, total vol 183256, vol(u>maxvel) 6.78298, cell count 716334
bounding box (containing cells with vel>maxvel): xmin -12.2811 -1.75355 -0.476019, xmax 0.777383 1.75355 3.92748m 
bounding box of vehicle: xmin -12.2 -1.30007 -5.63784e-18, xmax 2.27682e-18 1.30013 3.6m 
gts area: 163.391 
yplus max: 167.279, yplus min: 0.941851 
position of yplus max: -12.0258 -1.29323 0.0340221 
yplus prom: 22.2459 
forces: 2449.229449 0.012281 -841.162103 
Drag coefficient: 0.683492 
torque (ref. CG): -0.017193 (roll) -1702.167596 (pitch) -0.074914 (yaw) 
----------------------------------------------------- 
step 72, time 0.054000, maxvel 30.000000, total vol 183256, vol(u>maxvel) 6.76367, cell count 712661
bounding box (containing cells with vel>maxvel): xmin -12.2811 -1.75355 -0.476019, xmax 0.777707 1.75355 3.92748m 
bounding box of vehicle: xmin -12.2 -1.30007 -5.63784e-18, xmax 2.27682e-18 1.30013 3.6m 
gts area: 163.391 
yplus max: 167.279, yplus min: 0.85582 
position of yplus max: -12.0258 -1.29323 0.0340221 
yplus prom: 22.2366 
forces: 2442.255522 0.012250 -840.657545 
Drag coefficient: 0.681546 
torque (ref. CG): -0.017150 (roll) -1708.853295 (pitch) -0.074727 (yaw) 
----------------------------------------------------- 
step 73, time 0.054750, maxvel 30.000000, total vol 183256, vol(u>maxvel) 6.74388, cell count 709135
bounding box (containing cells with vel>maxvel): xmin -12.2811 -1.75355 -0.476019, xmax 0.777891 1.75355 3.92748m 
bounding box of vehicle: xmin -12.2 -1.30007 -5.63784e-18, xmax 2.27682e-18 1.30013 3.6m 
gts area: 163.391 
yplus max: 167.279, yplus min: 0.979168 
position of yplus max: -12.0258 -1.29323 0.0340221 
yplus prom: 22.2272 
forces: 2435.370048 0.010931 -840.134147 
Drag coefficient: 0.679625 
torque (ref. CG): -0.015304 (roll) -1715.300228 (pitch) -0.066681 (yaw) 
----------------------------------------------------- 
step 74, time 0.055500, maxvel 30.000000, total vol 183256, vol(u>maxvel) 6.72291, cell count 705202
bounding box (containing cells with vel>maxvel): xmin -12.2811 -1.75349 -0.476019, xmax 0.778022 1.75349 3.92732m 
bounding box of vehicle: xmin -12.2 -1.30007 -5.63784e-18, xmax 2.27682e-18 1.30013 3.6m 
gts area: 163.391 
yplus max: 167.279, yplus min: 0.959425 
position of yplus max: -12.0258 -1.29323 0.0340221 
yplus prom: 22.2179 
forces: 2428.565131 0.011630 -839.598753 
Drag coefficient: 0.677726 
torque (ref. CG): -0.016283 (roll) -1721.561210 (pitch) -0.070946 (yaw) 
----------------------------------------------------- 
step 75, time 0.056250, maxvel 30.000000, total vol 183256, vol(u>maxvel) 6.70584, cell count 701357
bounding box (containing cells with vel>maxvel): xmin -12.2811 -1.75349 -0.476209, xmax 0.808489 1.75349 3.92732m 
bounding box of vehicle: xmin -12.2 -1.30007 -5.63784e-18, xmax 2.27682e-18 1.30013 3.6m 
gts area: 163.391 
yplus max: 167.278, yplus min: 0.893175 
position of yplus max: -12.0258 -1.29323 0.0340221 
yplus prom: 22.2086 
forces: 2421.846307 0.011339 -839.051070 
Drag coefficient: 0.675851 
torque (ref. CG): -0.015874 (roll) -1727.626697 (pitch) -0.069165 (yaw) 
----------------------------------------------------- 
step 76, time 0.057000, maxvel 30.000000, total vol 183256, vol(u>maxvel) 6.68845, cell count 697284
bounding box (containing cells with vel>maxvel): xmin -12.2811 -1.75349 -0.476209, xmax 0.808764 1.75349 3.92732m 
bounding box of vehicle: xmin -12.2 -1.30007 -5.63784e-18, xmax 2.27682e-18 1.30013 3.6m 
gts area: 163.391 
yplus max: 167.278, yplus min: 0.785278 
position of yplus max: -12.0258 -1.29323 0.0340221 
yplus prom: 22.1994 
forces: 2415.232638 0.013060 -838.475880 
Drag coefficient: 0.674005 
torque (ref. CG): -0.018284 (roll) -1733.377172 (pitch) -0.079666 (yaw) 
----------------------------------------------------- 
step 77, time 0.057750, maxvel 30.000000, total vol 183256, vol(u>maxvel) 6.66941, cell count 693067
bounding box (containing cells with vel>maxvel): xmin -12.2811 -1.75349 -0.476209, xmax 0.808905 1.75349 3.92732m 
bounding box of vehicle: xmin -12.2 -1.30007 -5.63784e-18, xmax 2.27682e-18 1.30013 3.6m 
gts area: 163.391 
yplus max: 167.278, yplus min: 0.960523 
position of yplus max: -12.0258 -1.29323 0.0340221 
yplus prom: 22.1902 
forces: 2408.661892 0.014073 -837.916627 
Drag coefficient: 0.672172 
torque (ref. CG): -0.019702 (roll) -1739.164779 (pitch) -0.085843 (yaw) 
----------------------------------------------------- 
step 78, time 0.058500, maxvel 30.000000, total vol 183256, vol(u>maxvel) 6.64091, cell count 688317
bounding box (containing cells with vel>maxvel): xmin -12.2811 -1.75349 -0.476209, xmax 0.80904 1.75349 3.92732m 
bounding box of vehicle: xmin -12.2 -1.30007 -5.63784e-18, xmax 2.27682e-18 1.30013 3.6m 
gts area: 163.391 
yplus max: 167.277, yplus min: 0.95607 
position of yplus max: -12.0258 -1.29323 0.0340221 
yplus prom: 22.1811 
forces: 2402.176286 0.009007 -837.352076 
Drag coefficient: 0.670362 
torque (ref. CG): -0.012609 (roll) -1744.800861 (pitch) -0.054941 (yaw) 
----------------------------------------------------- 
step 79, time 0.059250, maxvel 30.000000, total vol 183256, vol(u>maxvel) 6.61557, cell count 683586
bounding box (containing cells with vel>maxvel): xmin -12.2811 -1.75349 -0.476209, xmax 0.839551 1.75349 3.92732m 
bounding box of vehicle: xmin -12.2 -1.30007 -5.63784e-18, xmax 2.27682e-18 1.30013 3.6m 
gts area: 163.391 
yplus max: 167.277, yplus min: 0.938584 
position of yplus max: -12.0258 -1.29323 0.0340221 
yplus prom: 22.1719 
forces: 2395.815355 0.011572 -836.740267 
Drag coefficient: 0.668587 
torque (ref. CG): -0.016201 (roll) -1749.974131 (pitch) -0.070590 (yaw) 
----------------------------------------------------- 
step 80, time 0.060000, maxvel 30.000000, total vol 183256, vol(u>maxvel) 6.58776, cell count 678884
bounding box (containing cells with vel>maxvel): xmin -12.2811 -1.75349 -0.476209, xmax 0.839825 1.75349 3.92732m 
bounding box of vehicle: xmin -12.2 -1.30007 -5.63784e-18, xmax 2.27682e-18 1.30013 3.6m 
gts area: 163.391 
yplus max: 167.276, yplus min: 0.465349 
position of yplus max: -12.0258 -1.29323 0.0340221 
yplus prom: 22.1628 
forces: 2389.518617 0.011929 -836.136509 
Drag coefficient: 0.666829 
torque (ref. CG): -0.016701 (roll) -1755.106641 (pitch) -0.072770 (yaw) 
----------------------------------------------------- 
step 81, time 0.060750, maxvel 30.000000, total vol 183256, vol(u>maxvel) 6.56175, cell count 674827
bounding box (containing cells with vel>maxvel): xmin -12.2811 -1.75348 -0.476209, xmax 0.839968 1.75348 3.92732m 
bounding box of vehicle: xmin -12.2 -1.30007 -5.63784e-18, xmax 2.27682e-18 1.30013 3.6m 
gts area: 163.391 
yplus max: 167.276, yplus min: 0.943222 
position of yplus max: -12.0258 -1.29323 0.0340221 
yplus prom: 22.1538 
forces: 2383.374868 0.027023 -835.480353 
Drag coefficient: 0.665115 
torque (ref. CG): -0.037832 (roll) -1759.705336 (pitch) -0.164840 (yaw) 
----------------------------------------------------- 
step 82, time 0.061500, maxvel 30.000000, total vol 183256, vol(u>maxvel) 6.52933, cell count 670921
bounding box (containing cells with vel>maxvel): xmin -12.2811 -1.75343 -0.476209, xmax 0.84006 1.75343 3.92732m 
bounding box of vehicle: xmin -12.2 -1.30007 -5.63784e-18, xmax 2.27682e-18 1.30013 3.6m 
gts area: 163.391 
yplus max: 167.275, yplus min: 0.939116 
position of yplus max: -12.0258 -1.29323 0.0340221 
yplus prom: 22.1448 
forces: 2377.140186 -0.001268 -834.923002 
Drag coefficient: 0.663375 
torque (ref. CG): 0.001775 (roll) -1765.034052 (pitch) 0.007732 (yaw) 
----------------------------------------------------- 
step 83, time 0.062250, maxvel 30.000000, total vol 183256, vol(u>maxvel) 6.50691, cell count 667564
bounding box (containing cells with vel>maxvel): xmin -12.2811 -1.75343 -0.476209, xmax 0.870618 1.75343 3.92732m 
bounding box of vehicle: xmin -12.2 -1.30007 -5.63784e-18, xmax 2.27682e-18 1.30013 3.6m 
gts area: 163.391 
yplus max: 167.274, yplus min: 0.772314 
position of yplus max: -12.0258 -1.29323 0.0340221 
yplus prom: 22.1359 
forces: 2371.089215 0.054307 -834.272441 
Drag coefficient: 0.661686 
torque (ref. CG): -0.076030 (roll) -1769.536990 (pitch) -0.331274 (yaw) 
----------------------------------------------------- 
step 84, time 0.063000, maxvel 30.000000, total vol 183256, vol(u>maxvel) 6.48148, cell count 664348
bounding box (containing cells with vel>maxvel): xmin -12.2936 -1.75343 -0.476209, xmax 0.870842 1.75343 3.92732m 
bounding box of vehicle: xmin -12.2 -1.30007 -5.63784e-18, xmax 2.27682e-18 1.30013 3.6m 
gts area: 163.391 
yplus max: 167.274, yplus min: 0.931174 
position of yplus max: -12.0258 -1.29323 0.0340221 
yplus prom: 22.127 
forces: 2365.250697 -0.033440 -833.600576 
Drag coefficient: 0.660057 
torque (ref. CG): 0.046816 (roll) -1773.612537 (pitch) 0.203982 (yaw) 
----------------------------------------------------- 
step 85, time 0.063750, maxvel 30.000000, total vol 183256, vol(u>maxvel) 6.45914, cell count 661318
bounding box (containing cells with vel>maxvel): xmin -12.2936 -1.75343 -0.476209, xmax 0.870988 1.75343 3.92732m 
bounding box of vehicle: xmin -12.2 -1.30007 -5.63784e-18, xmax 2.27682e-18 1.30013 3.6m 
gts area: 163.391 
yplus max: 167.273, yplus min: 0.927339 
position of yplus max: -12.0258 -1.29323 0.0340221 
yplus prom: 22.1182 
forces: 2359.193380 0.032780 -833.005949 
Drag coefficient: 0.658367 
torque (ref. CG): -0.045892 (roll) -1778.465555 (pitch) -0.199956 (yaw) 
----------------------------------------------------- 
step 86, time 0.064500, maxvel 30.000000, total vol 183256, vol(u>maxvel) 6.43705, cell count 658830
bounding box (containing cells with vel>maxvel): xmin -12.2936 -1.75343 -0.476209, xmax 0.871128 1.75343 3.9251m 
bounding box of vehicle: xmin -12.2 -1.30007 -5.63784e-18, xmax 2.27682e-18 1.30013 3.6m 
gts area: 163.391 
yplus max: 167.272, yplus min: 0.869885 
position of yplus max: -12.0258 -1.29323 0.0340221 
yplus prom: 22.1094 
forces: 2353.702838 0.036938 -832.199052 
Drag coefficient: 0.656834 
torque (ref. CG): -0.051713 (roll) -1781.230246 (pitch) -0.225322 (yaw) 
----------------------------------------------------- 
step 87, time 0.065250, maxvel 30.000000, total vol 183256, vol(u>maxvel) 6.41375, cell count 656376
bounding box (containing cells with vel>maxvel): xmin -12.2941 -1.75343 -0.476209, xmax 0.901637 1.75343 3.9251m 
bounding box of vehicle: xmin -12.2 -1.30007 -5.63784e-18, xmax 2.27682e-18 1.30013 3.6m 
gts area: 163.391 
yplus max: 167.271, yplus min: 0.512539 
position of yplus max: -12.0258 -1.29323 0.0340221 
yplus prom: 22.1007 
forces: 2347.808701 0.015075 -831.619725 
Drag coefficient: 0.655190 
torque (ref. CG): -0.021105 (roll) -1785.948142 (pitch) -0.091959 (yaw) 
----------------------------------------------------- 
step 88, time 0.066000, maxvel 30.000000, total vol 183256, vol(u>maxvel) 6.39152, cell count 654185
bounding box (containing cells with vel>maxvel): xmin -12.2941 -1.75343 -0.476209, xmax 0.90186 1.75343 3.9251m 
bounding box of vehicle: xmin -12.2 -1.30007 -5.63784e-18, xmax 2.27682e-18 1.30013 3.6m 
gts area: 163.391 
yplus max: 167.27, yplus min: 0.609152 
position of yplus max: -12.0258 -1.29323 0.0340221 
yplus prom: 22.0921 
forces: 2342.067752 0.003926 -830.997937 
Drag coefficient: 0.653587 
torque (ref. CG): -0.005496 (roll) -1790.192564 (pitch) -0.023949 (yaw) 
----------------------------------------------------- 
step 89, time 0.066750, maxvel 30.000000, total vol 183256, vol(u>maxvel) 6.37233, cell count 652137
bounding box (containing cells with vel>maxvel): xmin -12.2942 -1.75343 -0.476351, xmax 0.90201 1.75343 3.9251m 
bounding box of vehicle: xmin -12.2 -1.30007 -5.63784e-18, xmax 2.27682e-18 1.30013 3.6m 
gts area: 163.391 
yplus max: 167.269, yplus min: 0.912952 
position of yplus max: -12.0258 -1.29323 0.0340221 
yplus prom: 22.0836 
forces: 2336.660136 0.014656 -830.234674 
Drag coefficient: 0.652078 
torque (ref. CG): -0.020518 (roll) -1793.107318 (pitch) -0.089401 (yaw) 
----------------------------------------------------- 
step 90, time 0.067500, maxvel 30.000000, total vol 183256, vol(u>maxvel) 6.34802, cell count 649973
bounding box (containing cells with vel>maxvel): xmin -12.2942 -1.75342 -0.476351, xmax 0.902153 1.75342 3.9251m 
bounding box of vehicle: xmin -12.2 -1.30007 -5.63784e-18, xmax 2.27682e-18 1.30013 3.6m 
gts area: 163.391 
yplus max: 167.269, yplus min: 0.909598 
position of yplus max: -12.0258 -1.29323 0.0340221 
yplus prom: 22.0752 
forces: 2331.182004 0.010944 -829.545201 
Drag coefficient: 0.650550 
torque (ref. CG): -0.015322 (roll) -1796.570921 (pitch) -0.066761 (yaw) 
----------------------------------------------------- 
step 91, time 0.068250, maxvel 30.000000, total vol 183256, vol(u>maxvel) 6.33224, cell count 648184
bounding box (containing cells with vel>maxvel): xmin -12.2942 -1.75342 -0.476351, xmax 0.932659 1.75342 3.9251m 
bounding box of vehicle: xmin -12.2 -1.30007 -5.63784e-18, xmax 2.27682e-18 1.30013 3.6m 
gts area: 163.391 
yplus max: 167.268, yplus min: 0.906342 
position of yplus max: -12.0258 -1.29323 0.0340221 
yplus prom: 22.0668 
forces: 2325.783200 0.008262 -828.839709 
Drag coefficient: 0.649043 
torque (ref. CG): -0.011566 (roll) -1799.825741 (pitch) -0.050396 (yaw) 
----------------------------------------------------- 
step 92, time 0.069000, maxvel 30.000000, total vol 183256, vol(u>maxvel) 6.31607, cell count 646516
bounding box (containing cells with vel>maxvel): xmin -12.2942 -1.75342 -0.476351, xmax 0.932881 1.75342 3.9251m 
bounding box of vehicle: xmin -12.2 -1.30007 -5.63784e-18, xmax 2.27682e-18 1.30013 3.6m 
gts area: 163.391 
yplus max: 167.267, yplus min: 0.903185 
position of yplus max: -12.0258 -1.29323 0.0340221 
yplus prom: 22.0584 
forces: 2320.474069 -0.002372 -828.112928 
Drag coefficient: 0.647561 
torque (ref. CG): 0.003321 (roll) -1802.825161 (pitch) 0.014472 (yaw) 
----------------------------------------------------- 
step 93, time 0.069750, maxvel 30.000000, total vol 183256, vol(u>maxvel) 6.29329, cell count 644676
bounding box (containing cells with vel>maxvel): xmin -12.2942 -1.75342 -0.476351, xmax 0.933034 1.75342 3.9251m 
bounding box of vehicle: xmin -12.2 -1.30007 -5.63784e-18, xmax 2.27682e-18 1.30013 3.6m 
gts area: 163.391 
yplus max: 167.266, yplus min: 0.900131 
position of yplus max: -12.0258 -1.29323 0.0340221 
yplus prom: 22.0501 
forces: 2315.240432 0.003366 -827.379937 
Drag coefficient: 0.646101 
torque (ref. CG): -0.004712 (roll) -1805.681014 (pitch) -0.020531 (yaw) 
----------------------------------------------------- 
step 94, time 0.070500, maxvel 30.000000, total vol 183256, vol(u>maxvel) 6.27574, cell count 643109
bounding box (containing cells with vel>maxvel): xmin -12.2942 -1.75342 -0.476351, xmax 0.933181 1.75342 3.9251m 
bounding box of vehicle: xmin -12.2 -1.30007 -5.63784e-18, xmax 2.27682e-18 1.30013 3.6m 
gts area: 163.391 
yplus max: 167.265, yplus min: 0.897176 
position of yplus max: -12.0258 -1.29323 0.0340221 
yplus prom: 22.0419 
forces: 2309.985785 -0.003767 -826.681669 
Drag coefficient: 0.644635 
torque (ref. CG): 0.005274 (roll) -1808.778079 (pitch) 0.022981 (yaw) 
----------------------------------------------------- 
step 95, time 0.071250, maxvel 30.000000, total vol 183256, vol(u>maxvel) 6.25982, cell count 641444
bounding box (containing cells with vel>maxvel): xmin -12.2942 -1.75342 -0.476351, xmax 0.963737 1.75342 3.9251m 
bounding box of vehicle: xmin -12.2 -1.30007 -5.63784e-18, xmax 2.27682e-18 1.30013 3.6m 
gts area: 163.391 
yplus max: 167.264, yplus min: 0.894327 
position of yplus max: -12.0258 -1.29323 0.0340221 
yplus prom: 22.0338 
forces: 2304.989473 0.012551 -825.874960 
Drag coefficient: 0.643240 
torque (ref. CG): -0.017571 (roll) -1810.851991 (pitch) -0.076559 (yaw) 
----------------------------------------------------- 
step 96, time 0.072000, maxvel 30.000000, total vol 183256, vol(u>maxvel) 6.24204, cell count 639722
bounding box (containing cells with vel>maxvel): xmin -12.2942 -1.75342 -0.476351, xmax 0.963905 1.75342 3.9251m 
bounding box of vehicle: xmin -12.2 -1.30007 -5.63784e-18, xmax 2.27682e-18 1.30013 3.6m 
gts area: 163.391 
yplus max: 167.263, yplus min: 0.575986 
position of yplus max: -12.0258 -1.29323 0.0340221 
yplus prom: 22.0257 
forces: 2299.983609 0.009456 -825.104623 
Drag coefficient: 0.641843 
torque (ref. CG): -0.013238 (roll) -1813.161150 (pitch) -0.057680 (yaw) 
----------------------------------------------------- 
step 97, time 0.072750, maxvel 30.000000, total vol 183256, vol(u>maxvel) 6.22196, cell count 638214
bounding box (containing cells with vel>maxvel): xmin -12.2942 -1.75342 -0.476351, xmax 0.964061 1.75342 3.9251m 
bounding box of vehicle: xmin -12.2 -1.30007 -5.63784e-18, xmax 2.27682e-18 1.30013 3.6m 
gts area: 163.391 
yplus max: 167.262, yplus min: 0.888938 
position of yplus max: -12.0258 -1.29323 0.0340221 
yplus prom: 22.0178 
forces: 2295.030033 0.004930 -824.318205 
Drag coefficient: 0.640461 
torque (ref. CG): -0.006902 (roll) -1815.299003 (pitch) -0.030072 (yaw) 
----------------------------------------------------- 
step 98, time 0.073500, maxvel 30.000000, total vol 183256, vol(u>maxvel) 6.20521, cell count 636798
bounding box (containing cells with vel>maxvel): xmin -12.2942 -1.75342 -0.476351, xmax 0.964161 1.75342 3.9251m 
bounding box of vehicle: xmin -12.2 -1.30007 -5.63784e-18, xmax 2.27682e-18 1.30013 3.6m 
gts area: 163.391 
yplus max: 167.261, yplus min: 0.886402 
position of yplus max: -12.0258 -1.29323 0.0340221 
yplus prom: 22.0099 
forces: 2290.152810 0.012929 -823.520817 
Drag coefficient: 0.639100 
torque (ref. CG): -0.018101 (roll) -1817.263049 (pitch) -0.078867 (yaw) 
----------------------------------------------------- 
step 99, time 0.074250, maxvel 30.000000, total vol 183256, vol(u>maxvel) 6.18698, cell count 635321
bounding box (containing cells with vel>maxvel): xmin -12.2942 -1.75342 -0.476351, xmax 0.994712 1.75342 3.92207m 
bounding box of vehicle: xmin -12.2 -1.30007 -5.63784e-18, xmax 2.27682e-18 1.30013 3.6m 
gts area: 163.391 
yplus max: 167.26, yplus min: 0.88397 
position of yplus max: -12.0258 -1.29323 0.0340221 
yplus prom: 22.002 
forces: 2285.338273 0.011976 -822.731289 
Drag coefficient: 0.637756 
torque (ref. CG): -0.016766 (roll) -1819.187281 (pitch) -0.073052 (yaw) 
----------------------------------------------------- 
step 100, time 0.075000, maxvel 30.000000, total vol 183256, vol(u>maxvel) 6.17067, cell count 633889
bounding box (containing cells with vel>maxvel): xmin -12.2942 -1.75342 -0.476351, xmax 0.994922 1.75342 3.92207m 
bounding box of vehicle: xmin -12.2 -1.30007 -5.63784e-18, xmax 2.27682e-18 1.30013 3.6m 
gts area: 163.391 
yplus max: 167.259, yplus min: 0.881644 
position of yplus max: -12.0258 -1.29323 0.0340221 
yplus prom: 21.9942 
forces: 2280.589181 0.010715 -821.911246 
Drag coefficient: 0.636431 
torque (ref. CG): -0.015001 (roll) -1820.833750 (pitch) -0.065360 (yaw) 
----------------------------------------------------- 
step 101, time 0.075750, maxvel 30.000000, total vol 183256, vol(u>maxvel) 6.1501, cell count 632461
bounding box (containing cells with vel>maxvel): xmin -12.2942 -1.75342 -0.476351, xmax 0.995091 1.75342 3.92207m 
bounding box of vehicle: xmin -12.2 -1.30007 -5.63784e-18, xmax 2.27682e-18 1.30013 3.6m 
gts area: 163.391 
yplus max: 167.258, yplus min: 0.879424 
position of yplus max: -12.0258 -1.29323 0.0340221 
yplus prom: 21.9864 
forces: 2275.902219 0.011110 -821.074660 
Drag coefficient: 0.635123 
torque (ref. CG): -0.015554 (roll) -1822.292319 (pitch) -0.067770 (yaw) 
----------------------------------------------------- 
step 102, time 0.076500, maxvel 30.000000, total vol 183256, vol(u>maxvel) 6.13155, cell count 631030
bounding box (containing cells with vel>maxvel): xmin -12.2942 -1.75342 -0.476351, xmax 0.995193 1.75342 3.92207m 
bounding box of vehicle: xmin -12.2 -1.30007 -5.63784e-18, xmax 2.27682e-18 1.30013 3.6m 
gts area: 163.391 
yplus max: 167.257, yplus min: 0.877312 
position of yplus max: -12.0258 -1.29323 0.0340221 
yplus prom: 21.9788 
forces: 2271.278767 0.010412 -820.219091 
Drag coefficient: 0.633833 
torque (ref. CG): -0.014576 (roll) -1823.546184 (pitch) -0.063511 (yaw) 
----------------------------------------------------- 
step 103, time 0.077250, maxvel 30.000000, total vol 183256, vol(u>maxvel) 6.11015, cell count 629583
bounding box (containing cells with vel>maxvel): xmin -12.2942 -1.75342 -0.476351, xmax 1.02569 1.75342 3.92207m 
bounding box of vehicle: xmin -12.2 -1.30007 -5.63784e-18, xmax 2.27682e-18 1.30013 3.6m 
gts area: 163.391 
yplus max: 167.256, yplus min: 0.875306 
position of yplus max: -12.0258 -1.29323 0.0340221 
yplus prom: 21.9711 
forces: 2266.715723 0.011279 -819.354095 
Drag coefficient: 0.632559 
torque (ref. CG): -0.015791 (roll) -1824.657966 (pitch) -0.068802 (yaw) 
----------------------------------------------------- 
step 104, time 0.078000, maxvel 30.000000, total vol 183256, vol(u>maxvel) 6.09686, cell count 628266
bounding box (containing cells with vel>maxvel): xmin -12.2942 -1.75342 -0.476458, xmax 1.02596 1.75342 3.92207m 
bounding box of vehicle: xmin -12.2 -1.30007 -5.63784e-18, xmax 2.27682e-18 1.30013 3.6m 
gts area: 163.391 
yplus max: 167.255, yplus min: 0.873407 
position of yplus max: -12.0258 -1.29323 0.0340221 
yplus prom: 21.9635 
forces: 2262.211419 0.011385 -818.474374 
Drag coefficient: 0.631302 
torque (ref. CG): -0.015939 (roll) -1825.597693 (pitch) -0.069449 (yaw) 
----------------------------------------------------- 
step 105, time 0.078750, maxvel 30.000000, total vol 183256, vol(u>maxvel) 6.07904, cell count 626973
bounding box (containing cells with vel>maxvel): xmin -12.2942 -1.75342 -0.476458, xmax 1.02611 1.75342 3.92099m 
bounding box of vehicle: xmin -12.2 -1.30007 -5.63784e-18, xmax 2.27682e-18 1.30013 3.6m 
gts area: 163.391 
yplus max: 167.254, yplus min: 0.871615 
position of yplus max: -12.0258 -1.29323 0.0340221 
yplus prom: 21.956 
forces: 2257.766236 0.011144 -817.578487 
Drag coefficient: 0.630062 
torque (ref. CG): -0.015601 (roll) -1826.356038 (pitch) -0.067976 (yaw) 
----------------------------------------------------- 
step 106, time 0.079500, maxvel 30.000000, total vol 183256, vol(u>maxvel) 6.06507, cell count 625757
bounding box (containing cells with vel>maxvel): xmin -12.2942 -1.75342 -0.476458, xmax 1.02621 1.75342 3.92099m 
bounding box of vehicle: xmin -12.2 -1.30007 -5.63784e-18, xmax 2.27682e-18 1.30013 3.6m 
gts area: 163.391 
yplus max: 167.253, yplus min: 0.86993 
position of yplus max: -12.0258 -1.29323 0.0340221 
yplus prom: 21.9486 
forces: 2253.375424 0.013064 -816.659833 
Drag coefficient: 0.628837 
torque (ref. CG): -0.018289 (roll) -1826.899388 (pitch) -0.079689 (yaw) 
----------------------------------------------------- 
step 107, time 0.080250, maxvel 30.000000, total vol 183256, vol(u>maxvel) 6.04567, cell count 624379
bounding box (containing cells with vel>maxvel): xmin -12.2942 -1.75342 -0.476458, xmax 1.02628 1.75342 3.89663m 
bounding box of vehicle: xmin -12.2 -1.30007 -5.63784e-18, xmax 2.27682e-18 1.30013 3.6m 
gts area: 163.391 
yplus max: 167.252, yplus min: 0.868352 
position of yplus max: -12.0258 -1.29323 0.0340221 
yplus prom: 21.9411 
forces: 2249.037532 0.011984 -815.733638 
Drag coefficient: 0.627626 
torque (ref. CG): -0.016778 (roll) -1827.322647 (pitch) -0.073103 (yaw) 
----------------------------------------------------- 
step 108, time 0.081000, maxvel 30.000000, total vol 183256, vol(u>maxvel) 6.025, cell count 622966
bounding box (containing cells with vel>maxvel): xmin -12.2942 -1.75342 -0.476458, xmax 1.05694 1.75342 3.89646m 
bounding box of vehicle: xmin -12.2 -1.30007 -5.63784e-18, xmax 2.27682e-18 1.30013 3.6m 
gts area: 163.391 
yplus max: 167.25, yplus min: 0.86688 
position of yplus max: -12.0258 -1.29323 0.0340221 
yplus prom: 21.9338 
forces: 2244.752407 0.013223 -814.784342 
Drag coefficient: 0.626430 
torque (ref. CG): -0.018512 (roll) -1827.531115 (pitch) -0.080660 (yaw) 
----------------------------------------------------- 
step 109, time 0.081750, maxvel 30.000000, total vol 183256, vol(u>maxvel) 6.01024, cell count 621768
bounding box (containing cells with vel>maxvel): xmin -12.2942 -1.75342 -0.476458, xmax 1.0571 1.75342 3.89646m 
bounding box of vehicle: xmin -12.2 -1.30007 -5.63784e-18, xmax 2.27682e-18 1.30013 3.6m 
gts area: 163.391 
yplus max: 167.249, yplus min: 0.865514 
position of yplus max: -12.0258 -1.29323 0.0340221 
yplus prom: 21.9264 
forces: 2240.513722 0.011131 -813.825390 
Drag coefficient: 0.625247 
torque (ref. CG): -0.015583 (roll) -1827.615669 (pitch) -0.067898 (yaw) 
----------------------------------------------------- 
step 110, time 0.082500, maxvel 30.000000, total vol 183256, vol(u>maxvel) 5.99442, cell count 620584
bounding box (containing cells with vel>maxvel): xmin -12.2942 -1.75342 -0.476458, xmax 1.0572 1.75342 3.89646m 
bounding box of vehicle: xmin -12.2 -1.30007 -5.63784e-18, xmax 2.27682e-18 1.30013 3.6m 
gts area: 163.391 
yplus max: 167.248, yplus min: 0.864254 
position of yplus max: -12.0258 -1.29323 0.0340221 
yplus prom: 21.9191 
forces: 2236.328683 0.011910 -812.843115 
Drag coefficient: 0.624079 
torque (ref. CG): -0.016674 (roll) -1827.482848 (pitch) -0.072649 (yaw) 
----------------------------------------------------- 
step 111, time 0.083250, maxvel 30.000000, total vol 183256, vol(u>maxvel) 5.98108, cell count 619437
bounding box (containing cells with vel>maxvel): xmin -12.2942 -1.75342 -0.476458, xmax 1.0573 1.75342 3.89646m 
bounding box of vehicle: xmin -12.2 -1.30007 -5.63784e-18, xmax 2.27682e-18 1.30013 3.6m 
gts area: 163.391 
yplus max: 167.247, yplus min: 0.750539 
position of yplus max: -12.0258 -1.29323 0.0340221 
yplus prom: 21.9119 
forces: 2232.189238 0.010256 -811.845585 
Drag coefficient: 0.622924 
torque (ref. CG): -0.014359 (roll) -1827.193137 (pitch) -0.062563 (yaw) 
----------------------------------------------------- 
step 112, time 0.084000, maxvel 30.000000, total vol 183256, vol(u>maxvel) 5.96799, cell count 618310
bounding box (containing cells with vel>maxvel): xmin -12.2942 -1.75342 -0.476458, xmax 1.08787 1.75342 3.89646m 
bounding box of vehicle: xmin -12.2 -1.30007 -5.63784e-18, xmax 2.27682e-18 1.30013 3.6m 
gts area: 163.391 
yplus max: 167.246, yplus min: 0.862047 
position of yplus max: -12.0258 -1.29323 0.0340221 
yplus prom: 21.9047 
forces: 2228.093379 0.005087 -810.825996 
Drag coefficient: 0.621781 
torque (ref. CG): -0.007122 (roll) -1826.707846 (pitch) -0.031032 (yaw) 
----------------------------------------------------- 
step 113, time 0.084750, maxvel 30.000000, total vol 183256, vol(u>maxvel) 5.95168, cell count 617003
bounding box (containing cells with vel>maxvel): xmin -12.2942 -1.75342 -0.476458, xmax 1.08814 1.75342 3.89646m 
bounding box of vehicle: xmin -12.2 -1.30007 -5.63784e-18, xmax 2.27682e-18 1.30013 3.6m 
gts area: 163.391 
yplus max: 167.244, yplus min: 0.8611 
position of yplus max: -12.0258 -1.29323 0.0340221 
yplus prom: 21.8976 
forces: 2224.040901 0.012440 -809.786473 
Drag coefficient: 0.620650 
torque (ref. CG): -0.017415 (roll) -1826.040224 (pitch) -0.075882 (yaw) 
----------------------------------------------------- 
step 114, time 0.085500, maxvel 30.000000, total vol 183256, vol(u>maxvel) 5.93242, cell count 615691
bounding box (containing cells with vel>maxvel): xmin -12.2942 -1.75342 -0.476458, xmax 1.08824 1.75342 3.89646m 
bounding box of vehicle: xmin -12.2 -1.30007 -5.63784e-18, xmax 2.27682e-18 1.30013 3.6m 
gts area: 163.391 
yplus max: 167.243, yplus min: 0.860254 
position of yplus max: -12.0258 -1.29323 0.0340221 
yplus prom: 21.8904 
forces: 2220.033580 0.010370 -808.728011 
Drag coefficient: 0.619532 
torque (ref. CG): -0.014517 (roll) -1825.193858 (pitch) -0.063254 (yaw) 
----------------------------------------------------- 
step 115, time 0.086250, maxvel 30.000000, total vol 183256, vol(u>maxvel) 5.91826, cell count 614361
bounding box (containing cells with vel>maxvel): xmin -12.2942 -1.75342 -0.476458, xmax 1.08834 1.75342 3.89646m 
bounding box of vehicle: xmin -12.2 -1.30007 -5.63784e-18, xmax 2.27682e-18 1.30013 3.6m 
gts area: 163.391 
yplus max: 167.242, yplus min: 0.85951 
position of yplus max: -12.0258 -1.29323 0.0340221 
yplus prom: 21.8833 
forces: 2216.061802 0.012363 -807.648605 
Drag coefficient: 0.618424 
torque (ref. CG): -0.017308 (roll) -1824.169969 (pitch) -0.075414 (yaw) 
----------------------------------------------------- 
step 116, time 0.087000, maxvel 30.000000, total vol 183256, vol(u>maxvel) 5.90331, cell count 613019
bounding box (containing cells with vel>maxvel): xmin -12.2942 -1.75342 -0.476458, xmax 1.08839 1.75342 3.89646m 
bounding box of vehicle: xmin -12.2 -1.30007 -5.63784e-18, xmax 2.27682e-18 1.30013 3.6m 
gts area: 163.391 
yplus max: 167.241, yplus min: 0.858867 
position of yplus max: -12.0258 -1.29323 0.0340221 
yplus prom: 21.8763 
forces: 2212.121727 0.010199 -806.547115 
Drag coefficient: 0.617324 
torque (ref. CG): -0.014278 (roll) -1822.966987 (pitch) -0.062213 (yaw) 
----------------------------------------------------- 
step 117, time 0.087750, maxvel 30.000000, total vol 183256, vol(u>maxvel) 5.88836, cell count 611895
bounding box (containing cells with vel>maxvel): xmin -12.2942 -1.75342 -0.476458, xmax 1.11907 1.75342 3.89646m 
bounding box of vehicle: xmin -12.2 -1.30007 -5.63784e-18, xmax 2.27682e-18 1.30013 3.6m 
gts area: 163.391 
yplus max: 167.239, yplus min: 0.858322 
position of yplus max: -12.0258 -1.29323 0.0340221 
yplus prom: 21.8693 
forces: 2208.216837 0.010610 -805.424509 
Drag coefficient: 0.616234 
torque (ref. CG): -0.014854 (roll) -1821.585935 (pitch) -0.064722 (yaw) 
----------------------------------------------------- 
step 118, time 0.088500, maxvel 30.000000, total vol 183256, vol(u>maxvel) 5.87278, cell count 610621
bounding box (containing cells with vel>maxvel): xmin -12.2942 -1.75342 -0.476458, xmax 1.11923 1.75342 3.89421m 
bounding box of vehicle: xmin -12.2 -1.30007 -5.63784e-18, xmax 2.27682e-18 1.30013 3.6m 
gts area: 163.391 
yplus max: 167.238, yplus min: 0.857875 
position of yplus max: -12.0258 -1.29323 0.0340221 
yplus prom: 21.8623 
forces: 2204.340680 0.008776 -804.281420 
Drag coefficient: 0.615153 
torque (ref. CG): -0.012286 (roll) -1820.039711 (pitch) -0.053532 (yaw) 
----------------------------------------------------- 
step 119, time 0.089250, maxvel 30.000000, total vol 183256, vol(u>maxvel) 5.85633, cell count 609394
bounding box (containing cells with vel>maxvel): xmin -12.2942 -1.75342 -0.476458, xmax 1.11934 1.75342 3.89421m 
bounding box of vehicle: xmin -12.2 -1.30007 -5.63784e-18, xmax 2.27682e-18 1.30013 3.6m 
gts area: 163.391 
yplus max: 167.237, yplus min: 0.857526 
position of yplus max: -12.0258 -1.29323 0.0340221 
yplus prom: 21.8554 
forces: 2200.495528 0.009089 -803.115980 
Drag coefficient: 0.614080 
torque (ref. CG): -0.012725 (roll) -1818.313741 (pitch) -0.055444 (yaw) 
----------------------------------------------------- 
step 120, time 0.090000, maxvel 30.000000, total vol 183256, vol(u>maxvel) 5.84576, cell count 608215
bounding box (containing cells with vel>maxvel): xmin -12.2942 -1.75342 -0.476458, xmax 1.11939 1.75342 3.89421m 
bounding box of vehicle: xmin -12.2 -1.30007 -5.63784e-18, xmax 2.27682e-18 1.30013 3.6m 
gts area: 163.391 
yplus max: 167.235, yplus min: 0.857271 
position of yplus max: -12.0258 -1.29323 0.0340221 
yplus prom: 21.8485 
forces: 2196.683622 0.008950 -801.925961 
Drag coefficient: 0.613016 
torque (ref. CG): -0.012531 (roll) -1816.391289 (pitch) -0.054598 (yaw) 
----------------------------------------------------- 
step 121, time 0.090750, maxvel 30.000000, total vol 183256, vol(u>maxvel) 5.82989, cell count 606893
bounding box (containing cells with vel>maxvel): xmin -12.2942 -1.75342 -0.47654, xmax 1.14851 1.75342 3.89421m 
bounding box of vehicle: xmin -12.2 -1.30007 -5.63784e-18, xmax 2.27682e-18 1.30013 3.6m 
gts area: 163.391 
yplus max: 167.234, yplus min: 0.857109 
position of yplus max: -12.0258 -1.29323 0.0340221 
yplus prom: 21.8416 
forces: 2192.905164 0.008393 -800.713838 
Drag coefficient: 0.611962 
torque (ref. CG): -0.011751 (roll) -1814.287185 (pitch) -0.051200 (yaw) 
----------------------------------------------------- 
step 122, time 0.091500, maxvel 30.000000, total vol 183256, vol(u>maxvel) 5.81343, cell count 605592
bounding box (containing cells with vel>maxvel): xmin -12.2942 -1.75342 -0.47654, xmax 1.15017 1.75342 3.89421m 
bounding box of vehicle: xmin -12.2 -1.30007 -5.63784e-18, xmax 2.27682e-18 1.30013 3.6m 
gts area: 163.391 
yplus max: 167.232, yplus min: 0.85704 
position of yplus max: -12.0258 -1.29323 0.0340221 
yplus prom: 21.8348 
forces: 2189.154008 0.009742 -799.471610 
Drag coefficient: 0.610915 
torque (ref. CG): -0.013639 (roll) -1811.961209 (pitch) -0.059429 (yaw) 
----------------------------------------------------- 
step 123, time 0.092250, maxvel 30.000000, total vol 183256, vol(u>maxvel) 5.80265, cell count 604459
bounding box (containing cells with vel>maxvel): xmin -12.2942 -1.75342 -0.47654, xmax 1.15033 1.75342 3.89421m 
bounding box of vehicle: xmin -12.2 -1.30007 -5.63784e-18, xmax 2.27682e-18 1.30013 3.6m 
gts area: 163.391 
yplus max: 167.231, yplus min: 0.857062 
position of yplus max: -12.0258 -1.29323 0.0340221 
yplus prom: 21.8279 
forces: 2185.421766 0.008157 -798.213524 
Drag coefficient: 0.609873 
torque (ref. CG): -0.011420 (roll) -1809.512022 (pitch) -0.049759 (yaw) 
----------------------------------------------------- 
step 124, time 0.093000, maxvel 30.000000, total vol 183256, vol(u>maxvel) 5.7904, cell count 603261
bounding box (containing cells with vel>maxvel): xmin -12.2942 -1.75342 -0.47654, xmax 1.15038 1.75342 3.89421m 
bounding box of vehicle: xmin -12.2 -1.30007 -5.63784e-18, xmax 2.27682e-18 1.30013 3.6m 
gts area: 163.391 
yplus max: 167.229, yplus min: 0.857172 
position of yplus max: -12.0258 -1.29323 0.0340221 
yplus prom: 21.8211 
[...]
position of yplus max: -12.0258 -1.29323 0.0340221 
yplus prom: 19.7015 
forces: 1084.479125 0.000034 -565.796109 
Drag coefficient: 0.302639 
torque (ref. CG): -0.000048 (roll) -1933.085490 (pitch) -0.000209 (yaw) 
----------------------------------------------------- 
step 970, time 0.727500, maxvel 30.000000, total vol 183256, vol(u>maxvel) 2.28975, cell count 366400
bounding box (containing cells with vel>maxvel): xmin -12.281 -1.723 -0.474171, xmax -9.92314 1.723 3.55844m 
bounding box of vehicle: xmin -12.2 -1.30007 -5.63784e-18, xmax 2.27682e-18 1.30013 3.6m 
gts area: 163.391 
yplus max: 166.926, yplus min: 1.01453 
position of yplus max: -12.0258 -1.29323 0.0340221 
yplus prom: 19.7016 
forces: 1084.176704 0.000174 -565.495766 
Drag coefficient: 0.302555 
torque (ref. CG): -0.000244 (roll) -1931.676789 (pitch) -0.001062 (yaw) 
----------------------------------------------------- 
step 971, time 0.728250, maxvel 30.000000, total vol 183256, vol(u>maxvel) 2.28975, cell count 366400
bounding box (containing cells with vel>maxvel): xmin -12.281 -1.723 -0.474171, xmax -9.92314 1.723 3.55844m 
bounding box of vehicle: xmin -12.2 -1.30007 -5.63784e-18, xmax 2.27682e-18 1.30013 3.6m 
gts area: 163.391 
yplus max: 166.926, yplus min: 1.13037 
position of yplus max: -12.0258 -1.29323 0.0340221 
yplus prom: 19.7018 
forces: 1083.872994 0.000111 -565.196354 
Drag coefficient: 0.302470 
torque (ref. CG): -0.000156 (roll) -1930.275570 (pitch) -0.000679 (yaw) 
----------------------------------------------------- 
step 972, time 0.729000, maxvel 30.000000, total vol 183256, vol(u>maxvel) 2.28979, cell count 366402
bounding box (containing cells with vel>maxvel): xmin -12.281 -1.723 -0.474171, xmax -9.92314 1.723 3.55844m 
bounding box of vehicle: xmin -12.2 -1.30007 -5.63784e-18, xmax 2.27682e-18 1.30013 3.6m 
gts area: 163.391 
yplus max: 166.926, yplus min: 1.20356 
position of yplus max: -12.0258 -1.29323 0.0340221 
yplus prom: 19.702 
forces: 1083.576177 0.000143 -564.899455 
Drag coefficient: 0.302387 
torque (ref. CG): -0.000200 (roll) -1928.880028 (pitch) -0.000871 (yaw) 
----------------------------------------------------- 
step 973, time 0.729750, maxvel 30.000000, total vol 183256, vol(u>maxvel) 2.28979, cell count 366401
bounding box (containing cells with vel>maxvel): xmin -12.281 -1.723 -0.474171, xmax -9.92314 1.723 3.55844m 
bounding box of vehicle: xmin -12.2 -1.30007 -5.63784e-18, xmax 2.27682e-18 1.30013 3.6m 
gts area: 163.391 
yplus max: 166.926, yplus min: 1.20344 
position of yplus max: -12.0258 -1.29323 0.0340221 
yplus prom: 19.7021 
forces: 1083.276496 0.000162 -564.603804 
Drag coefficient: 0.302304 
torque (ref. CG): -0.000226 (roll) -1927.496109 (pitch) -0.000986 (yaw) 
----------------------------------------------------- 
step 974, time 0.730500, maxvel 30.000000, total vol 183256, vol(u>maxvel) 2.28979, cell count 366402
bounding box (containing cells with vel>maxvel): xmin -12.281 -1.723 -0.474171, xmax -9.92314 1.723 3.55844m 
bounding box of vehicle: xmin -12.2 -1.30007 -5.63784e-18, xmax 2.27682e-18 1.30013 3.6m 
gts area: 163.391 
yplus max: 166.926, yplus min: 1.20331 
position of yplus max: -12.0258 -1.29323 0.0340221 
yplus prom: 19.7023 
forces: 1082.985269 0.000298 -564.311001 
Drag coefficient: 0.302223 
torque (ref. CG): -0.000417 (roll) -1926.117730 (pitch) -0.001818 (yaw) 
----------------------------------------------------- 
step 975, time 0.731250, maxvel 30.000000, total vol 183256, vol(u>maxvel) 2.2898, cell count 366404
bounding box (containing cells with vel>maxvel): xmin -12.281 -1.723 -0.474171, xmax -9.92314 1.723 3.55844m 
bounding box of vehicle: xmin -12.2 -1.30007 -5.63784e-18, xmax 2.27682e-18 1.30013 3.6m 
gts area: 163.391 
yplus max: 166.926, yplus min: 1.20318 
position of yplus max: -12.0258 -1.29323 0.0340221 
yplus prom: 19.7025 
forces: 1082.689190 0.000135 -564.019105 
Drag coefficient: 0.302140 
torque (ref. CG): -0.000189 (roll) -1924.751675 (pitch) -0.000825 (yaw) 
----------------------------------------------------- 
step 976, time 0.732000, maxvel 30.000000, total vol 183256, vol(u>maxvel) 2.2898, cell count 366404
bounding box (containing cells with vel>maxvel): xmin -12.281 -1.723 -0.474171, xmax -9.92314 1.723 3.55844m 
bounding box of vehicle: xmin -12.2 -1.30007 -5.63784e-18, xmax 2.27682e-18 1.30013 3.6m 
gts area: 163.391 
yplus max: 166.926, yplus min: 1.20306 
position of yplus max: -12.0258 -1.29323 0.0340221 
yplus prom: 19.7027 
forces: 1082.403934 0.000411 -563.729889 
Drag coefficient: 0.302060 
torque (ref. CG): -0.000576 (roll) -1923.386816 (pitch) -0.002509 (yaw) 
----------------------------------------------------- 
step 977, time 0.732750, maxvel 30.000000, total vol 183256, vol(u>maxvel) 2.2898, cell count 366404
bounding box (containing cells with vel>maxvel): xmin -12.281 -1.723 -0.474171, xmax -9.92314 1.723 3.55844m 
bounding box of vehicle: xmin -12.2 -1.30007 -5.63784e-18, xmax 2.27682e-18 1.30013 3.6m 
gts area: 163.391 
yplus max: 166.926, yplus min: 1.20293 
position of yplus max: -12.0258 -1.29323 0.0340221 
yplus prom: 19.7029 
forces: 1082.108783 0.000094 -563.441337 
Drag coefficient: 0.301978 
torque (ref. CG): -0.000132 (roll) -1922.039857 (pitch) -0.000576 (yaw) 
----------------------------------------------------- 
step 978, time 0.733500, maxvel 30.000000, total vol 183256, vol(u>maxvel) 2.2898, cell count 366406
bounding box (containing cells with vel>maxvel): xmin -12.281 -1.723 -0.474171, xmax -9.92314 1.723 3.55844m 
bounding box of vehicle: xmin -12.2 -1.30007 -5.63784e-18, xmax 2.27682e-18 1.30013 3.6m 
gts area: 163.391 
yplus max: 166.926, yplus min: 1.20281 
position of yplus max: -12.0258 -1.29323 0.0340221 
yplus prom: 19.7031 
forces: 1081.832886 0.000659 -563.157406 
Drag coefficient: 0.301901 
torque (ref. CG): -0.000923 (roll) -1920.694138 (pitch) -0.004020 (yaw) 
----------------------------------------------------- 
step 979, time 0.734250, maxvel 30.000000, total vol 183256, vol(u>maxvel) 2.2898, cell count 366407
bounding box (containing cells with vel>maxvel): xmin -12.281 -1.723 -0.474171, xmax -9.92314 1.723 3.55844m 
bounding box of vehicle: xmin -12.2 -1.30007 -5.63784e-18, xmax 2.27682e-18 1.30013 3.6m 
gts area: 163.391 
yplus max: 166.926, yplus min: 1.20268 
position of yplus max: -12.0258 -1.29323 0.0340221 
yplus prom: 19.7032 
forces: 1081.548739 0.000048 -562.870602 
Drag coefficient: 0.301822 
torque (ref. CG): -0.000067 (roll) -1919.342437 (pitch) -0.000291 (yaw) 
----------------------------------------------------- 
step 980, time 0.735000, maxvel 30.000000, total vol 183256, vol(u>maxvel) 2.28983, cell count 366408
bounding box (containing cells with vel>maxvel): xmin -12.281 -1.723 -0.474171, xmax -9.92314 1.723 3.55844m 
bounding box of vehicle: xmin -12.2 -1.30007 -5.63784e-18, xmax 2.27682e-18 1.30013 3.6m 
gts area: 163.391 
yplus max: 166.926, yplus min: 1.20256 
position of yplus max: -12.0258 -1.29323 0.0340221 
yplus prom: 19.7034 
forces: 1081.265138 0.000317 -562.588908 
Drag coefficient: 0.301742 
torque (ref. CG): -0.000444 (roll) -1918.021146 (pitch) -0.001933 (yaw) 
----------------------------------------------------- 
step 981, time 0.735750, maxvel 30.000000, total vol 183256, vol(u>maxvel) 2.28984, cell count 366410
bounding box (containing cells with vel>maxvel): xmin -12.281 -1.723 -0.474171, xmax -9.92314 1.723 3.55844m 
bounding box of vehicle: xmin -12.2 -1.30007 -5.63784e-18, xmax 2.27682e-18 1.30013 3.6m 
gts area: 163.391 
yplus max: 166.926, yplus min: 1.20243 
position of yplus max: -12.0258 -1.29323 0.0340221 
yplus prom: 19.7036 
forces: 1080.987569 0.000568 -562.309715 
Drag coefficient: 0.301665 
torque (ref. CG): -0.000795 (roll) -1916.706667 (pitch) -0.003463 (yaw) 
----------------------------------------------------- 
step 982, time 0.736500, maxvel 30.000000, total vol 183256, vol(u>maxvel) 2.28987, cell count 366412
bounding box (containing cells with vel>maxvel): xmin -12.281 -1.723 -0.474171, xmax -9.92314 1.723 3.55844m 
bounding box of vehicle: xmin -12.2 -1.30007 -5.63784e-18, xmax 2.27682e-18 1.30013 3.6m 
gts area: 163.391 
yplus max: 166.926, yplus min: 1.20231 
position of yplus max: -12.0258 -1.29323 0.0340221 
yplus prom: 19.7038 
forces: 1080.710108 0.000404 -562.029972 
Drag coefficient: 0.301588 
torque (ref. CG): -0.000566 (roll) -1915.388675 (pitch) -0.002464 (yaw) 
----------------------------------------------------- 
step 983, time 0.737250, maxvel 30.000000, total vol 183256, vol(u>maxvel) 2.28991, cell count 366414
bounding box (containing cells with vel>maxvel): xmin -12.281 -1.723 -0.474171, xmax -9.92314 1.723 3.55844m 
bounding box of vehicle: xmin -12.2 -1.30007 -5.63784e-18, xmax 2.27682e-18 1.30013 3.6m 
gts area: 163.391 
yplus max: 166.926, yplus min: 1.20219 
position of yplus max: -12.0258 -1.29323 0.0340221 
yplus prom: 19.704 
forces: 1080.437613 0.000504 -561.753209 
Drag coefficient: 0.301512 
torque (ref. CG): -0.000706 (roll) -1914.081915 (pitch) -0.003074 (yaw) 
----------------------------------------------------- 
step 984, time 0.738000, maxvel 30.000000, total vol 183256, vol(u>maxvel) 2.28991, cell count 366415
bounding box (containing cells with vel>maxvel): xmin -12.281 -1.723 -0.474171, xmax -9.92314 1.723 3.55844m 
bounding box of vehicle: xmin -12.2 -1.30007 -5.63784e-18, xmax 2.27682e-18 1.30013 3.6m 
gts area: 163.391 
yplus max: 166.926, yplus min: 1.20207 
position of yplus max: -12.0258 -1.29323 0.0340221 
yplus prom: 19.7042 
forces: 1080.164363 0.000426 -561.477456 
Drag coefficient: 0.301435 
torque (ref. CG): -0.000597 (roll) -1912.782372 (pitch) -0.002601 (yaw) 
----------------------------------------------------- 
step 985, time 0.738750, maxvel 30.000000, total vol 183256, vol(u>maxvel) 2.28994, cell count 366416
bounding box (containing cells with vel>maxvel): xmin -12.281 -1.723 -0.474171, xmax -9.92314 1.723 3.55844m 
bounding box of vehicle: xmin -12.2 -1.30007 -5.63784e-18, xmax 2.27682e-18 1.30013 3.6m 
gts area: 163.391 
yplus max: 166.926, yplus min: 1.20194 
position of yplus max: -12.0258 -1.29323 0.0340221 
yplus prom: 19.7045 
forces: 1079.896815 0.000555 -561.204957 
Drag coefficient: 0.301361 
torque (ref. CG): -0.000777 (roll) -1911.494694 (pitch) -0.003385 (yaw) 
----------------------------------------------------- 
step 986, time 0.739500, maxvel 30.000000, total vol 183256, vol(u>maxvel) 2.28994, cell count 366416
bounding box (containing cells with vel>maxvel): xmin -12.281 -1.723 -0.474171, xmax -9.92314 1.723 3.55844m 
bounding box of vehicle: xmin -12.2 -1.30007 -5.63784e-18, xmax 2.27682e-18 1.30013 3.6m 
gts area: 163.391 
yplus max: 166.926, yplus min: 1.20182 
position of yplus max: -12.0258 -1.29323 0.0340221 
yplus prom: 19.7047 
forces: 1079.627062 0.000521 -560.932292 
Drag coefficient: 0.301285 
torque (ref. CG): -0.000729 (roll) -1910.209096 (pitch) -0.003176 (yaw) 
----------------------------------------------------- 
step 987, time 0.740250, maxvel 30.000000, total vol 183256, vol(u>maxvel) 2.28996, cell count 366420
bounding box (containing cells with vel>maxvel): xmin -12.281 -1.723 -0.474171, xmax -9.92314 1.723 3.55844m 
bounding box of vehicle: xmin -12.2 -1.30007 -5.63784e-18, xmax 2.27682e-18 1.30013 3.6m 
gts area: 163.391 
yplus max: 166.926, yplus min: 1.2017 
position of yplus max: -12.0258 -1.29323 0.0340221 
yplus prom: 19.7049 
forces: 1079.364222 0.000650 -560.663233 
Drag coefficient: 0.301212 
torque (ref. CG): -0.000911 (roll) -1908.935809 (pitch) -0.003968 (yaw) 
----------------------------------------------------- 
step 988, time 0.741000, maxvel 30.000000, total vol 183256, vol(u>maxvel) 2.28999, cell count 366422
bounding box (containing cells with vel>maxvel): xmin -12.281 -1.723 -0.474171, xmax -9.92314 1.723 3.55844m 
bounding box of vehicle: xmin -12.2 -1.30007 -5.63784e-18, xmax 2.27682e-18 1.30013 3.6m 
gts area: 163.391 
yplus max: 166.926, yplus min: 1.20158 
position of yplus max: -12.0258 -1.29323 0.0340221 
yplus prom: 19.7051 
forces: 1079.098261 0.000502 -560.393784 
Drag coefficient: 0.301138 
torque (ref. CG): -0.000703 (roll) -1907.664517 (pitch) -0.003063 (yaw) 
----------------------------------------------------- 
step 989, time 0.741750, maxvel 30.000000, total vol 183256, vol(u>maxvel) 2.28999, cell count 366422
bounding box (containing cells with vel>maxvel): xmin -12.281 -1.723 -0.474171, xmax -9.92314 1.723 3.55844m 
bounding box of vehicle: xmin -12.2 -1.30007 -5.63784e-18, xmax 2.27682e-18 1.30013 3.6m 
gts area: 163.391 
yplus max: 166.926, yplus min: 1.20146 
position of yplus max: -12.0258 -1.29323 0.0340221 
yplus prom: 19.7053 
forces: 1078.840536 0.000683 -560.128234 
Drag coefficient: 0.301066 
torque (ref. CG): -0.000957 (roll) -1906.405477 (pitch) -0.004169 (yaw) 
----------------------------------------------------- 
step 990, time 0.742500, maxvel 30.000000, total vol 183256, vol(u>maxvel) 2.28999, cell count 366424
bounding box (containing cells with vel>maxvel): xmin -12.281 -1.723 -0.474171, xmax -9.92314 1.723 3.55844m 
bounding box of vehicle: xmin -12.2 -1.30007 -5.63784e-18, xmax 2.27682e-18 1.30013 3.6m 
gts area: 163.391 
yplus max: 166.926, yplus min: 1.20134 
position of yplus max: -12.0258 -1.29323 0.0340221 
yplus prom: 19.7055 
forces: 1078.577915 0.000592 -559.862230 
Drag coefficient: 0.300993 
torque (ref. CG): -0.000829 (roll) -1905.150525 (pitch) -0.003612 (yaw) 
----------------------------------------------------- 
step 991, time 0.743250, maxvel 30.000000, total vol 183256, vol(u>maxvel) 2.29, cell count 366425
bounding box (containing cells with vel>maxvel): xmin -12.281 -1.723 -0.474171, xmax -9.92314 1.723 3.55844m 
bounding box of vehicle: xmin -12.2 -1.30007 -5.63784e-18, xmax 2.27682e-18 1.30013 3.6m 
gts area: 163.391 
yplus max: 166.926, yplus min: 1.20122 
position of yplus max: -12.0258 -1.29323 0.0340221 
yplus prom: 19.7057 
forces: 1078.325629 0.000734 -559.600271 
Drag coefficient: 0.300922 
torque (ref. CG): -0.001028 (roll) -1903.905775 (pitch) -0.004480 (yaw) 
----------------------------------------------------- 
step 992, time 0.744000, maxvel 30.000000, total vol 183256, vol(u>maxvel) 2.29003, cell count 366428
bounding box (containing cells with vel>maxvel): xmin -12.281 -1.723 -0.474171, xmax -9.92314 1.723 3.55844m 
bounding box of vehicle: xmin -12.2 -1.30007 -5.63784e-18, xmax 2.27682e-18 1.30013 3.6m 
gts area: 163.391 
yplus max: 166.926, yplus min: 1.2011 
position of yplus max: -12.0258 -1.29323 0.0340221 
yplus prom: 19.7059 
forces: 1078.065644 0.000618 -559.337352 
Drag coefficient: 0.300850 
torque (ref. CG): -0.000865 (roll) -1902.665943 (pitch) -0.003770 (yaw) 
----------------------------------------------------- 
step 993, time 0.744750, maxvel 30.000000, total vol 183256, vol(u>maxvel) 2.29007, cell count 366430
bounding box (containing cells with vel>maxvel): xmin -12.281 -1.723 -0.474171, xmax -9.92314 1.723 3.55844m 
bounding box of vehicle: xmin -12.2 -1.30007 -5.63784e-18, xmax 2.27682e-18 1.30013 3.6m 
gts area: 163.391 
yplus max: 166.926, yplus min: 1.20098 
position of yplus max: -12.0258 -1.29323 0.0340221 
yplus prom: 19.7062 
forces: 1077.819285 0.000835 -559.079107 
Drag coefficient: 0.300781 
torque (ref. CG): -0.001170 (roll) -1901.435555 (pitch) -0.005097 (yaw) 
----------------------------------------------------- 
step 994, time 0.745500, maxvel 30.000000, total vol 183256, vol(u>maxvel) 2.2901, cell count 366431
bounding box (containing cells with vel>maxvel): xmin -12.281 -1.723 -0.474171, xmax -9.92314 1.723 3.55844m 
bounding box of vehicle: xmin -12.2 -1.30007 -5.63784e-18, xmax 2.27682e-18 1.30013 3.6m 
gts area: 163.391 
yplus max: 166.926, yplus min: 1.15274 
position of yplus max: -12.0258 -1.29323 0.0340221 
yplus prom: 19.7064 
forces: 1077.561484 0.000623 -558.819483 
Drag coefficient: 0.300709 
torque (ref. CG): -0.000872 (roll) -1900.212766 (pitch) -0.003799 (yaw) 
----------------------------------------------------- 
step 995, time 0.746250, maxvel 30.000000, total vol 183256, vol(u>maxvel) 2.2901, cell count 366433
bounding box (containing cells with vel>maxvel): xmin -12.281 -1.723 -0.474171, xmax -9.92314 1.723 3.55844m 
bounding box of vehicle: xmin -12.2 -1.30007 -5.63784e-18, xmax 2.27682e-18 1.30013 3.6m 
gts area: 163.391 
yplus max: 166.926, yplus min: 1.14305 
position of yplus max: -12.0258 -1.29323 0.0340221 
yplus prom: 19.7066 
forces: 1077.321309 0.000945 -558.564239 
Drag coefficient: 0.300642 
torque (ref. CG): -0.001324 (roll) -1898.992025 (pitch) -0.005767 (yaw) 
----------------------------------------------------- 
step 996, time 0.747000, maxvel 30.000000, total vol 183256, vol(u>maxvel) 2.2901, cell count 366434
bounding box (containing cells with vel>maxvel): xmin -12.281 -1.723 -0.474171, xmax -9.92314 1.723 3.55844m 
bounding box of vehicle: xmin -12.2 -1.30007 -5.63784e-18, xmax 2.27682e-18 1.30013 3.6m 
gts area: 163.391 
yplus max: 166.926, yplus min: 1.20063 
position of yplus max: -12.0258 -1.29323 0.0340221 
yplus prom: 19.7068 
forces: 1077.065653 0.000641 -558.307752 
Drag coefficient: 0.300571 
torque (ref. CG): -0.000898 (roll) -1897.785371 (pitch) -0.003911 (yaw) 
----------------------------------------------------- 
step 997, time 0.747750, maxvel 30.000000, total vol 183256, vol(u>maxvel) 2.2901, cell count 366436
bounding box (containing cells with vel>maxvel): xmin -12.281 -1.723 -0.474171, xmax -9.92314 1.723 3.55844m 
bounding box of vehicle: xmin -12.2 -1.30007 -5.63784e-18, xmax 2.27682e-18 1.30013 3.6m 
gts area: 163.391 
yplus max: 166.927, yplus min: 1.20051 
position of yplus max: -12.0258 -1.29323 0.0340221 
yplus prom: 19.7071 
forces: 1076.831559 0.000937 -558.056116 
Drag coefficient: 0.300505 
torque (ref. CG): -0.001312 (roll) -1896.578126 (pitch) -0.005717 (yaw) 
----------------------------------------------------- 
step 998, time 0.748500, maxvel 30.000000, total vol 183256, vol(u>maxvel) 2.29011, cell count 366437
bounding box (containing cells with vel>maxvel): xmin -12.281 -1.723 -0.474171, xmax -9.92314 1.723 3.55844m 
bounding box of vehicle: xmin -12.2 -1.30007 -5.63784e-18, xmax 2.27682e-18 1.30013 3.6m 
gts area: 163.391 
yplus max: 166.927, yplus min: 1.2004 
position of yplus max: -12.0258 -1.29323 0.0340221 
yplus prom: 19.7073 
forces: 1076.579404 0.000690 -557.802457 
Drag coefficient: 0.300435 
torque (ref. CG): -0.000967 (roll) -1895.383825 (pitch) -0.004212 (yaw) 
----------------------------------------------------- 
step 999, time 0.749250, maxvel 30.000000, total vol 183256, vol(u>maxvel) 2.29015, cell count 366441
bounding box (containing cells with vel>maxvel): xmin -12.281 -1.723 -0.474171, xmax -9.92314 1.723 3.55844m 
bounding box of vehicle: xmin -12.2 -1.30007 -5.63784e-18, xmax 2.27682e-18 1.30013 3.6m 
gts area: 163.391 
yplus max: 166.927, yplus min: 1.20028 
position of yplus max: -12.0258 -1.29323 0.0340221 
yplus prom: 19.7075 
forces: 1076.348705 0.001132 -557.554321 
Drag coefficient: 0.300370 
torque (ref. CG): -0.001585 (roll) -1894.193172 (pitch) -0.006908 (yaw) 
----------------------------------------------------- 
step 1000, time 0.750000, maxvel 30.000000, total vol 183256, vol(u>maxvel) 2.29016, cell count 366442
bounding box (containing cells with vel>maxvel): xmin -12.281 -1.723 -0.474171, xmax -9.92314 1.723 3.55844m 
bounding box of vehicle: xmin -12.2 -1.30007 -5.63784e-18, xmax 2.27682e-18 1.30013 3.6m 
gts area: 163.391 
yplus max: 166.927, yplus min: 1.20016 
position of yplus max: -12.0258 -1.29323 0.0340221 
yplus prom: 19.7077 
forces: 1076.100492 0.000665 -557.303730 
Drag coefficient: 0.300301 
torque (ref. CG): -0.000931 (roll) -1893.012062 (pitch) -0.004055 (yaw) 
----------------------------------------------------- 

 *****************************
  Post-calculation operations
 *****************************

Ends run at Fri Aug 12 12:18:50 ART 2022
