Start run at mié ago 24 19:41:09 ART 2022
PYTHON_CS_XFLAGS=' -O0 -g3 -ggdb3 -I/usr/include/jsoncpp ' /share/storage/pub/mstorti/saturne-vof/bin/code_saturne  run --param setup.xml

The following have been reloaded with a version change:
  1) llvm/6.0.0 => llvm/3.4.2


The following have been reloaded with a version change:
  1) llvm/3.4.2 => llvm/6.0.0


                      Code_Saturne
                      ************

 Version:   6.1-alpha
 Path:      /share/storage/pub/mstorti/saturne-vof

 Result directory:
   /share/storage/finzeo/GTS_Tunay_2/RESU/20220824-1941


 ****************************************
  Compiling user subroutines and linking
 ****************************************


 ****************************
  Preparing calculation data
 ****************************

 Parallel Code_Saturne on 120 processes.


 ***************************
  Preprocessing calculation
 ***************************


 **********************
  Starting calculation
 **********************

Warning: Process to core binding is enabled and OMP_NUM_THREADS is set to non-zero (1) value
If your program has OpenMP sections, this can cause over-subscription of cores and consequently poor performance
To avoid this, please re-run your application after setting MV2_ENABLE_AFFINITY=0
Use MV2_USE_THREAD_WARNING=0 to suppress this message
step 1, time 0.000500, maxvel 30.000000, total vol 183256, vol(u>maxvel) 7.19617, cell count 298959
bounding box (containing cells with vel>maxvel): xmin -12.2977 -1.85585 -0.484842, xmax 0.195513 1.85602 4.03758m 
bounding box of vehicle: xmin -12.2 -1.30049 -9.60874e-18, xmax 1.02694e-17 1.30049 3.60076m 
gts area: 163.392 
yplus max: 152.258, yplus min: 0 
position of yplus max: -7.16906 -1.22813 3.58195 
yplus prom: 12.0954 
forces: 610166428.059821 -4242.435734 -66436715.527757 
Drag coefficient: 170188.965903 
torque (ref. CG): 5939.410028 (roll) 448969034.564411 (pitch) 25878.857980 (yaw) 
----------------------------------------------------- 
step 2, time 0.001000, maxvel 30.000000, total vol 183256, vol(u>maxvel) 7.4685, cell count 344941
bounding box (containing cells with vel>maxvel): xmin -12.2977 -1.8563 -0.484842, xmax 0.196297 1.85636 4.11263m 
bounding box of vehicle: xmin -12.2 -1.30049 -9.60874e-18, xmax 1.02694e-17 1.30049 3.60076m 
gts area: 163.392 
yplus max: 156.955, yplus min: 0.301637 
position of yplus max: -12.0416 -1.22688 0.038376 
yplus prom: 8.69005 
forces: 1164596.756817 -7.698169 -143342.149296 
Drag coefficient: 324.831896 
torque (ref. CG): 10.777437 (roll) 756048.348840 (pitch) 46.958832 (yaw) 
----------------------------------------------------- 
step 3, time 0.001500, maxvel 30.000000, total vol 183256, vol(u>maxvel) 7.46933, cell count 358421
bounding box (containing cells with vel>maxvel): xmin -12.2759 -1.8563 -0.489394, xmax 0.196329 1.85636 4.11262m 
bounding box of vehicle: xmin -12.2 -1.30049 -9.60874e-18, xmax 1.02694e-17 1.30049 3.60076m 
gts area: 163.392 
yplus max: 163.784, yplus min: 0.139118 
position of yplus max: -12.042 1.28668 1.93393 
yplus prom: 8.69286 
forces: 24671.602671 5.111414 -3458.226459 
Drag coefficient: 6.881458 
torque (ref. CG): -7.155980 (roll) 13445.062342 (pitch) -31.179627 (yaw) 
----------------------------------------------------- 
step 4, time 0.002000, maxvel 30.000000, total vol 183256, vol(u>maxvel) 7.46379, cell count 375397
bounding box (containing cells with vel>maxvel): xmin -12.2759 -1.85615 -0.489394, xmax 0.269594 1.85619 4.10989m 
bounding box of vehicle: xmin -12.2 -1.30049 -9.60874e-18, xmax 1.02694e-17 1.30049 3.60076m 
gts area: 163.392 
yplus max: 164.931, yplus min: 0.0714046 
position of yplus max: -12.042 1.28668 1.93393 
yplus prom: 8.68952 
forces: 1875.832694 -1.010296 -817.267708 
Drag coefficient: 0.523211 
torque (ref. CG): 1.414415 (roll) -2359.167250 (pitch) 6.162806 (yaw) 
----------------------------------------------------- 
step 5, time 0.002500, maxvel 30.000000, total vol 183256, vol(u>maxvel) 7.44771, cell count 377076
bounding box (containing cells with vel>maxvel): xmin -12.2758 -1.85608 -0.489394, xmax 0.269685 1.85619 4.10988m 
bounding box of vehicle: xmin -12.2 -1.30049 -9.60874e-18, xmax 1.02694e-17 1.30049 3.60076m 
gts area: 163.392 
yplus max: 166.178, yplus min: 0.059639 
position of yplus max: -12.042 1.28668 1.93393 
yplus prom: 8.52957 
forces: 2296.978084 -0.122395 -913.630100 
Drag coefficient: 0.640678 
torque (ref. CG): 0.171353 (roll) -2357.374290 (pitch) 0.746608 (yaw) 
----------------------------------------------------- 
step 6, time 0.003000, maxvel 30.000000, total vol 183256, vol(u>maxvel) 7.43226, cell count 378255
bounding box (containing cells with vel>maxvel): xmin -12.2758 -1.85597 -0.489394, xmax 0.270027 1.85604 4.10987m 
bounding box of vehicle: xmin -12.2 -1.30049 -9.60874e-18, xmax 1.02694e-17 1.30049 3.60076m 
gts area: 163.392 
yplus max: 167.433, yplus min: 0.10326 
position of yplus max: -12.042 1.28668 1.93393 
yplus prom: 8.4261 
forces: 2459.811436 -0.367785 -928.672782 
Drag coefficient: 0.686096 
torque (ref. CG): 0.514899 (roll) -2221.167958 (pitch) 2.243489 (yaw) 
----------------------------------------------------- 
step 7, time 0.003500, maxvel 30.000000, total vol 183256, vol(u>maxvel) 7.41621, cell count 380032
bounding box (containing cells with vel>maxvel): xmin -12.2758 -1.85578 -0.489394, xmax 0.270097 1.85587 4.10986m 
bounding box of vehicle: xmin -12.2 -1.30049 -9.60874e-18, xmax 1.02694e-17 1.30049 3.60076m 
gts area: 163.392 
yplus max: 168.672, yplus min: 0.0979081 
position of yplus max: -12.042 1.28668 1.93393 
yplus prom: 8.36612 
forces: 2537.734998 -0.421972 -927.883004 
Drag coefficient: 0.707831 
torque (ref. CG): 0.590761 (roll) -2107.257329 (pitch) 2.574030 (yaw) 
----------------------------------------------------- 
step 8, time 0.004000, maxvel 30.000000, total vol 183256, vol(u>maxvel) 7.40461, cell count 382666
bounding box (containing cells with vel>maxvel): xmin -12.2758 -1.85578 -0.492895, xmax 0.270155 1.85587 4.03758m 
bounding box of vehicle: xmin -12.2 -1.30049 -9.60874e-18, xmax 1.02694e-17 1.30049 3.60076m 
gts area: 163.392 
yplus max: 169.858, yplus min: 0.0928322 
position of yplus max: -12.042 1.28668 1.93393 
yplus prom: 8.33386 
forces: 2604.520217 -0.440396 -925.875317 
Drag coefficient: 0.726459 
torque (ref. CG): 0.616555 (roll) -2001.511128 (pitch) 2.686417 (yaw) 
----------------------------------------------------- 
step 9, time 0.004500, maxvel 30.000000, total vol 183256, vol(u>maxvel) 7.39309, cell count 384934
bounding box (containing cells with vel>maxvel): xmin -12.2757 -1.85556 -0.492895, xmax 0.270191 1.8557 4.03758m 
bounding box of vehicle: xmin -12.2 -1.30049 -9.60874e-18, xmax 1.02694e-17 1.30049 3.60076m 
gts area: 163.392 
yplus max: 170.971, yplus min: 0.0870387 
position of yplus max: -12.042 1.28668 1.93393 
yplus prom: 8.32025 
forces: 2667.902214 -0.454363 -924.017892 
Drag coefficient: 0.744137 
torque (ref. CG): 0.636108 (roll) -1901.446041 (pitch) 2.771614 (yaw) 
----------------------------------------------------- 
step 10, time 0.005000, maxvel 30.000000, total vol 183256, vol(u>maxvel) 7.38088, cell count 386055
bounding box (containing cells with vel>maxvel): xmin -12.2757 -1.85533 -0.492895, xmax 0.270249 1.85553 4.03758m 
bounding box of vehicle: xmin -12.2 -1.30049 -9.60874e-18, xmax 1.02694e-17 1.30049 3.60076m 
gts area: 163.392 
yplus max: 172.004, yplus min: 0.0818151 
position of yplus max: -12.042 1.28668 1.93393 
yplus prom: 8.31838 
forces: 2727.693327 -0.466830 -920.618417 
Drag coefficient: 0.760814 
torque (ref. CG): 0.653563 (roll) -1797.001687 (pitch) 2.847666 (yaw) 
----------------------------------------------------- 
step 11, time 0.005500, maxvel 30.000000, total vol 183256, vol(u>maxvel) 7.36999, cell count 387222
bounding box (containing cells with vel>maxvel): xmin -12.2757 -1.85533 -0.492895, xmax 0.270286 1.85553 4.03745m 
bounding box of vehicle: xmin -12.2 -1.30049 -9.60874e-18, xmax 1.02694e-17 1.30049 3.60076m 
gts area: 163.392 
yplus max: 172.958, yplus min: 0.0772108 
position of yplus max: -12.042 1.28668 1.93393 
yplus prom: 8.32403 
forces: 2783.154810 -0.476649 -919.144768 
Drag coefficient: 0.776284 
torque (ref. CG): 0.667308 (roll) -1710.366353 (pitch) 2.907558 (yaw) 
----------------------------------------------------- 
step 12, time 0.006000, maxvel 30.000000, total vol 183256, vol(u>maxvel) 7.36704, cell count 388384
bounding box (containing cells with vel>maxvel): xmin -12.2757 -1.85508 -0.492895, xmax 0.270391 1.85533 4.03745m 
bounding box of vehicle: xmin -12.2 -1.30049 -9.60874e-18, xmax 1.02694e-17 1.30049 3.60076m 
gts area: 163.392 
yplus max: 173.836, yplus min: 0.0731141 
position of yplus max: -12.042 1.28668 1.93393 
yplus prom: 8.33455 
forces: 2833.142366 -0.483138 -918.170889 
Drag coefficient: 0.790226 
torque (ref. CG): 0.676393 (roll) -1634.443110 (pitch) 2.947139 (yaw) 
----------------------------------------------------- 
step 13, time 0.006500, maxvel 30.000000, total vol 183256, vol(u>maxvel) 7.35186, cell count 389054
bounding box (containing cells with vel>maxvel): xmin -12.2757 -1.85485 -0.495588, xmax 0.270405 1.85513 4.03745m 
bounding box of vehicle: xmin -12.2 -1.30049 -9.60874e-18, xmax 1.02694e-17 1.30049 3.60076m 
gts area: 163.392 
yplus max: 174.64, yplus min: 0.069547 
position of yplus max: -12.042 1.28668 1.93393 
yplus prom: 8.34847 
forces: 2879.310835 -0.482283 -916.855324 
Drag coefficient: 0.803104 
torque (ref. CG): 0.675196 (roll) -1561.782306 (pitch) 2.941927 (yaw) 
----------------------------------------------------- 
step 14, time 0.007000, maxvel 30.000000, total vol 183256, vol(u>maxvel) 7.34391, cell count 388908
bounding box (containing cells with vel>maxvel): xmin -12.2757 -1.85463 -0.495588, xmax 0.270417 1.85492 4.03745m 
bounding box of vehicle: xmin -12.2 -1.30049 -9.60874e-18, xmax 1.02694e-17 1.30049 3.60076m 
gts area: 163.392 
yplus max: 175.373, yplus min: 0.066617 
position of yplus max: -12.042 1.28668 1.93393 
yplus prom: 8.36454 
forces: 2923.216573 -0.488852 -914.856593 
Drag coefficient: 0.815350 
torque (ref. CG): 0.684393 (roll) -1488.122012 (pitch) 2.981997 (yaw) 
----------------------------------------------------- 
step 15, time 0.007500, maxvel 30.000000, total vol 183256, vol(u>maxvel) 7.33626, cell count 389622
bounding box (containing cells with vel>maxvel): xmin -12.2757 -1.85444 -0.495588, xmax 0.271187 1.85469 4.03737m 
bounding box of vehicle: xmin -12.2 -1.30049 -9.60874e-18, xmax 1.02694e-17 1.30049 3.60076m 
gts area: 163.392 
yplus max: 176.039, yplus min: 0.06447 
position of yplus max: -12.042 1.28668 1.93393 
yplus prom: 8.38188 
forces: 2961.549783 -0.497294 -912.718713 
Drag coefficient: 0.826042 
torque (ref. CG): 0.696211 (roll) -1421.414454 (pitch) 3.033491 (yaw) 
----------------------------------------------------- 
step 16, time 0.008000, maxvel 30.000000, total vol 183256, vol(u>maxvel) 7.33114, cell count 389975
bounding box (containing cells with vel>maxvel): xmin -12.2755 -1.8466 -0.495588, xmax 0.271249 1.84672 4.03737m 
bounding box of vehicle: xmin -12.2 -1.30049 -9.60874e-18, xmax 1.02694e-17 1.30049 3.60076m 
gts area: 163.392 
yplus max: 176.643, yplus min: 0.0631569 
position of yplus max: -12.042 1.28668 1.93393 
yplus prom: 8.39978 
forces: 2993.229122 -0.504508 -911.259275 
Drag coefficient: 0.834878 
torque (ref. CG): 0.706311 (roll) -1368.160804 (pitch) 3.077497 (yaw) 
----------------------------------------------------- 
step 17, time 0.008500, maxvel 30.000000, total vol 183256, vol(u>maxvel) 7.32548, cell count 390347
bounding box (containing cells with vel>maxvel): xmin -12.2755 -1.8466 -0.495588, xmax 0.271314 1.84672 4.03737m 
bounding box of vehicle: xmin -12.2 -1.30049 -9.60874e-18, xmax 1.02694e-17 1.30049 3.60076m 
gts area: 163.392 
yplus max: 177.188, yplus min: 0.0626514 
position of yplus max: -12.042 1.28668 1.93393 
yplus prom: 8.41758 
forces: 3020.105893 -0.512762 -910.738774 
Drag coefficient: 0.842375 
torque (ref. CG): 0.717866 (roll) -1327.358269 (pitch) 3.127846 (yaw) 
----------------------------------------------------- 
step 18, time 0.009000, maxvel 30.000000, total vol 183256, vol(u>maxvel) 7.31337, cell count 390084
bounding box (containing cells with vel>maxvel): xmin -12.2755 -1.8466 -0.49766, xmax 0.271348 1.84672 4.03737m 
bounding box of vehicle: xmin -12.2 -1.30049 -9.60874e-18, xmax 1.02694e-17 1.30049 3.60076m 
gts area: 163.392 
yplus max: 177.678, yplus min: 0.0583057 
position of yplus max: -12.042 1.28668 1.93393 
yplus prom: 8.43472 
forces: 3042.328361 -0.519155 -911.158904 
Drag coefficient: 0.848573 
torque (ref. CG): 0.726817 (roll) -1298.809607 (pitch) 3.166845 (yaw) 
----------------------------------------------------- 
step 19, time 0.009500, maxvel 30.000000, total vol 183256, vol(u>maxvel) 7.3126, cell count 389725
bounding box (containing cells with vel>maxvel): xmin -12.2755 -1.84647 -0.49766, xmax 0.344035 1.84663 4.03737m 
bounding box of vehicle: xmin -12.2 -1.30049 -9.60874e-18, xmax 1.02694e-17 1.30049 3.60076m 
gts area: 163.392 
yplus max: 178.118, yplus min: 0.0541596 
position of yplus max: -12.042 1.28668 1.93393 
yplus prom: 8.45096 
forces: 3060.309511 -0.526976 -911.790552 
Drag coefficient: 0.853588 
torque (ref. CG): 0.737767 (roll) -1277.489049 (pitch) 3.214557 (yaw) 
----------------------------------------------------- 
step 20, time 0.010000, maxvel 30.000000, total vol 183256, vol(u>maxvel) 7.30068, cell count 390128
bounding box (containing cells with vel>maxvel): xmin -12.2755 -1.84647 -0.49766, xmax 0.344207 1.84663 4.03732m 
bounding box of vehicle: xmin -12.2 -1.30049 -9.60874e-18, xmax 1.02694e-17 1.30049 3.60076m 
gts area: 163.392 
yplus max: 178.511, yplus min: 0.048057 
position of yplus max: -12.042 1.28668 1.93393 
yplus prom: 8.46611 
forces: 3075.139421 -0.535089 -912.187714 
Drag coefficient: 0.857725 
torque (ref. CG): 0.749124 (roll) -1259.149866 (pitch) 3.264042 (yaw) 
----------------------------------------------------- 
step 21, time 0.010500, maxvel 30.000000, total vol 183256, vol(u>maxvel) 7.28996, cell count 390212
bounding box (containing cells with vel>maxvel): xmin -12.2755 -1.84633 -0.49766, xmax 0.344283 1.84653 4.03732m 
bounding box of vehicle: xmin -12.2 -1.30049 -9.60874e-18, xmax 1.02694e-17 1.30049 3.60076m 
gts area: 163.392 
yplus max: 178.861, yplus min: 0.0317875 
position of yplus max: -12.042 1.28668 1.93393 
yplus prom: 8.4801 
forces: 3087.860108 -0.537314 -912.353874 
Drag coefficient: 0.861273 
torque (ref. CG): 0.752239 (roll) -1242.354477 (pitch) 3.277612 (yaw) 
----------------------------------------------------- 
step 22, time 0.011000, maxvel 30.000000, total vol 183256, vol(u>maxvel) 7.2938, cell count 390079
bounding box (containing cells with vel>maxvel): xmin -12.2755 -1.84633 -0.49766, xmax 0.344659 1.84653 4.03732m 
bounding box of vehicle: xmin -12.2 -1.30049 -9.60874e-18, xmax 1.02694e-17 1.30049 3.60076m 
gts area: 163.392 
yplus max: 179.172, yplus min: 0.0450606 
position of yplus max: -12.042 1.28668 1.93393 
yplus prom: 8.49298 
forces: 3099.076015 -0.531130 -912.343607 
Drag coefficient: 0.864401 
torque (ref. CG): 0.743582 (roll) -1226.589580 (pitch) 3.239892 (yaw) 
----------------------------------------------------- 
step 23, time 0.011500, maxvel 30.000000, total vol 183256, vol(u>maxvel) 7.27558, cell count 389139
bounding box (containing cells with vel>maxvel): xmin -12.2754 -1.84621 -0.49766, xmax 0.344746 1.84643 4.0373m 
bounding box of vehicle: xmin -12.2 -1.30049 -9.60874e-18, xmax 1.02694e-17 1.30049 3.60076m 
gts area: 163.392 
yplus max: 179.446, yplus min: 0.0461539 
position of yplus max: -12.042 1.28668 1.93393 
yplus prom: 8.50476 
forces: 3108.493647 -0.520462 -912.108451 
Drag coefficient: 0.867028 
torque (ref. CG): 0.728647 (roll) -1211.970445 (pitch) 3.174820 (yaw) 
----------------------------------------------------- 
step 24, time 0.012000, maxvel 30.000000, total vol 183256, vol(u>maxvel) 7.27921, cell count 388735
bounding box (containing cells with vel>maxvel): xmin -12.2754 -1.8461 -0.499254, xmax 0.344779 1.84633 4.0373m 
bounding box of vehicle: xmin -12.2 -1.30049 -9.60874e-18, xmax 1.02694e-17 1.30049 3.60076m 
gts area: 163.392 
yplus max: 179.688, yplus min: 0.0455742 
position of yplus max: -12.042 1.28668 1.93393 
yplus prom: 8.51551 
forces: 3116.102862 -0.504766 -911.897012 
Drag coefficient: 0.869150 
torque (ref. CG): 0.706672 (roll) -1200.027765 (pitch) 3.079072 (yaw) 
----------------------------------------------------- 
step 25, time 0.012500, maxvel 30.000000, total vol 183256, vol(u>maxvel) 7.26162, cell count 387379
bounding box (containing cells with vel>maxvel): xmin -12.2754 -1.84601 -0.499254, xmax 0.344811 1.84621 4.0373m 
bounding box of vehicle: xmin -12.2 -1.30049 -9.60874e-18, xmax 1.02694e-17 1.30049 3.60076m 
gts area: 163.392 
yplus max: 179.9, yplus min: 0.0316207 
position of yplus max: -12.042 1.28668 1.93393 
yplus prom: 8.52538 
forces: 3121.889904 -0.477053 -911.800985 
Drag coefficient: 0.870764 
torque (ref. CG): 0.667874 (roll) -1191.340139 (pitch) 2.910024 (yaw) 
----------------------------------------------------- 
step 26, time 0.013000, maxvel 30.000000, total vol 183256, vol(u>maxvel) 7.25773, cell count 385981
bounding box (containing cells with vel>maxvel): xmin -12.2754 -1.78242 -0.499254, xmax 0.34488 1.78245 4.03728m 
bounding box of vehicle: xmin -12.2 -1.30049 -9.60874e-18, xmax 1.02694e-17 1.30049 3.60076m 
gts area: 163.392 
yplus max: 180.086, yplus min: 0.031331 
position of yplus max: -12.042 1.28668 1.93393 
yplus prom: 8.53464 
forces: 3125.955989 -0.431846 -911.880280 
Drag coefficient: 0.871899 
torque (ref. CG): 0.604584 (roll) -1186.131326 (pitch) 2.634260 (yaw) 
----------------------------------------------------- 
step 27, time 0.013500, maxvel 30.000000, total vol 183256, vol(u>maxvel) 7.26016, cell count 385003
bounding box (containing cells with vel>maxvel): xmin -12.2754 -1.78242 -0.499254, xmax 0.345153 1.78245 4.03728m 
bounding box of vehicle: xmin -12.2 -1.30049 -9.60874e-18, xmax 1.02694e-17 1.30049 3.60076m 
gts area: 163.392 
yplus max: 180.249, yplus min: 0.0306483 
position of yplus max: -12.042 1.28668 1.93393 
yplus prom: 8.54321 
forces: 3128.654143 -0.398553 -912.029470 
Drag coefficient: 0.872651 
torque (ref. CG): 0.557974 (roll) -1183.263969 (pitch) 2.431170 (yaw) 
----------------------------------------------------- 
step 28, time 0.014000, maxvel 30.000000, total vol 183256, vol(u>maxvel) 7.25085, cell count 384277
bounding box (containing cells with vel>maxvel): xmin -12.2754 -1.78237 -0.499254, xmax 0.345794 1.78245 4.03727m 
bounding box of vehicle: xmin -12.2 -1.30049 -9.60874e-18, xmax 1.02694e-17 1.30049 3.60076m 
gts area: 163.392 
yplus max: 180.39, yplus min: 0.0364181 
position of yplus max: -12.042 1.28668 1.93393 
yplus prom: 8.5513 
forces: 3130.452497 -0.366027 -912.151393 
Drag coefficient: 0.873153 
torque (ref. CG): 0.512438 (roll) -1181.490003 (pitch) 2.232764 (yaw) 
----------------------------------------------------- 
step 29, time 0.014500, maxvel 30.000000, total vol 183256, vol(u>maxvel) 7.25565, cell count 382984
bounding box (containing cells with vel>maxvel): xmin -12.2754 -1.78229 -0.499254, xmax 0.345901 1.78231 4.03727m 
bounding box of vehicle: xmin -12.2 -1.30049 -9.60874e-18, xmax 1.02694e-17 1.30049 3.60076m 
gts area: 163.392 
yplus max: 180.514, yplus min: 0.0317241 
position of yplus max: -12.042 1.28668 1.93393 
yplus prom: 8.55882 
forces: 3131.832221 -0.324165 -912.031414 
Drag coefficient: 0.873538 
torque (ref. CG): 0.453831 (roll) -1178.826515 (pitch) 1.977406 (yaw) 
----------------------------------------------------- 
step 30, time 0.015000, maxvel 30.000000, total vol 183256, vol(u>maxvel) 7.2676, cell count 382094
bounding box (containing cells with vel>maxvel): xmin -12.2754 -1.78229 -0.499254, xmax 0.345974 1.78231 4.03726m 
bounding box of vehicle: xmin -12.2 -1.30049 -9.60874e-18, xmax 1.02694e-17 1.30049 3.60076m 
gts area: 163.392 
yplus max: 180.622, yplus min: 0.0165721 
position of yplus max: -12.042 1.28668 1.93393 
yplus prom: 8.56561 
forces: 3132.988575 -0.281860 -911.760320 
Drag coefficient: 0.873860 
torque (ref. CG): 0.394604 (roll) -1175.553945 (pitch) 1.719344 (yaw) 
----------------------------------------------------- 
step 31, time 0.015500, maxvel 30.000000, total vol 183256, vol(u>maxvel) 7.25947, cell count 380734
bounding box (containing cells with vel>maxvel): xmin -12.2754 -1.78215 -0.50048, xmax 0.346014 1.78219 4.03726m 
bounding box of vehicle: xmin -12.2 -1.30049 -9.60874e-18, xmax 1.02694e-17 1.30049 3.60076m 
gts area: 163.392 
yplus max: 180.716, yplus min: 0.0233012 
position of yplus max: -12.042 1.28668 1.93393 
yplus prom: 8.57171 
forces: 3133.269120 -0.244367 -911.388200 
Drag coefficient: 0.873938 
torque (ref. CG): 0.342114 (roll) -1172.891252 (pitch) 1.490641 (yaw) 
----------------------------------------------------- 
step 32, time 0.016000, maxvel 30.000000, total vol 183256, vol(u>maxvel) 7.252, cell count 379995
bounding box (containing cells with vel>maxvel): xmin -12.2754 -1.78215 -0.50048, xmax 0.346105 1.78219 4.03468m 
bounding box of vehicle: xmin -12.2 -1.30049 -9.60874e-18, xmax 1.02694e-17 1.30049 3.60076m 
gts area: 163.392 
yplus max: 180.798, yplus min: 0.0343716 
position of yplus max: -12.042 1.28668 1.93393 
yplus prom: 8.5772 
forces: 3132.668795 -0.210048 -910.847540 
Drag coefficient: 0.873771 
torque (ref. CG): 0.294068 (roll) -1170.433678 (pitch) 1.281295 (yaw) 
----------------------------------------------------- 
step 33, time 0.016500, maxvel 30.000000, total vol 183256, vol(u>maxvel) 7.24115, cell count 379095
bounding box (containing cells with vel>maxvel): xmin -12.2754 -1.78215 -0.50048, xmax 0.346155 1.78219 4.03468m 
bounding box of vehicle: xmin -12.2 -1.30049 -9.60874e-18, xmax 1.02694e-17 1.30049 3.60076m 
gts area: 163.392 
yplus max: 180.87, yplus min: 0.020406 
position of yplus max: -12.042 1.28668 1.93393 
yplus prom: 8.58217 
forces: 3131.484718 -0.172806 -910.278946 
Drag coefficient: 0.873441 
torque (ref. CG): 0.241928 (roll) -1168.622965 (pitch) 1.054117 (yaw) 
----------------------------------------------------- 
step 34, time 0.017000, maxvel 30.000000, total vol 183256, vol(u>maxvel) 7.2342, cell count 378103
bounding box (containing cells with vel>maxvel): xmin -12.2754 -1.78199 -0.50048, xmax 0.34621 1.78206 4.03468m 
bounding box of vehicle: xmin -12.2 -1.30049 -9.60874e-18, xmax 1.02694e-17 1.30049 3.60076m 
gts area: 163.392 
yplus max: 180.932, yplus min: 0.0201325 
position of yplus max: -12.042 1.28668 1.93393 
yplus prom: 8.5868 
forces: 3129.542216 -0.134174 -909.774138 
Drag coefficient: 0.872899 
torque (ref. CG): 0.187843 (roll) -1168.263137 (pitch) 0.818459 (yaw) 
----------------------------------------------------- 
step 35, time 0.017500, maxvel 30.000000, total vol 183256, vol(u>maxvel) 7.22644, cell count 377317
bounding box (containing cells with vel>maxvel): xmin -12.2754 -1.78199 -0.50048, xmax 0.34621 1.78206 4.03466m 
bounding box of vehicle: xmin -12.2 -1.30049 -9.60874e-18, xmax 1.02694e-17 1.30049 3.60076m 
gts area: 163.392 
yplus max: 180.987, yplus min: 0.0254023 
position of yplus max: -12.042 1.28668 1.93393 
yplus prom: 8.59106 
forces: 3126.884402 -0.107585 -909.490804 
Drag coefficient: 0.872157 
torque (ref. CG): 0.150619 (roll) -1170.255739 (pitch) 0.656268 (yaw) 
----------------------------------------------------- 
step 36, time 0.018000, maxvel 30.000000, total vol 183256, vol(u>maxvel) 7.22939, cell count 376557
bounding box (containing cells with vel>maxvel): xmin -12.2754 -1.78199 -0.50048, xmax 0.346273 1.78206 4.03466m 
bounding box of vehicle: xmin -12.2 -1.30049 -9.60874e-18, xmax 1.02694e-17 1.30049 3.60076m 
gts area: 163.392 
yplus max: 181.035, yplus min: 0.0161673 
position of yplus max: -12.042 1.28668 1.93393 
yplus prom: 8.59495 
forces: 3123.423380 -0.100167 -909.225581 
Drag coefficient: 0.871192 
torque (ref. CG): 0.140234 (roll) -1173.483313 (pitch) 0.611018 (yaw) 
----------------------------------------------------- 
step 37, time 0.018500, maxvel 30.000000, total vol 183256, vol(u>maxvel) 7.21209, cell count 375657
bounding box (containing cells with vel>maxvel): xmin -12.2754 -1.78181 -0.50048, xmax 0.346344 1.78191 4.03466m 
bounding box of vehicle: xmin -12.2 -1.30049 -9.60874e-18, xmax 1.02694e-17 1.30049 3.60076m 
gts area: 163.392 
yplus max: 181.076, yplus min: 0.020867 
position of yplus max: -12.042 1.28668 1.93393 
yplus prom: 8.59849 
forces: 3119.181557 -0.098142 -908.986106 
Drag coefficient: 0.870009 
torque (ref. CG): 0.137398 (roll) -1177.961065 (pitch) 0.598664 (yaw) 
----------------------------------------------------- 
step 38, time 0.019000, maxvel 30.000000, total vol 183256, vol(u>maxvel) 7.19583, cell count 374499
bounding box (containing cells with vel>maxvel): xmin -12.2754 -1.78181 -0.50048, xmax 0.346344 1.78191 4.03465m 
bounding box of vehicle: xmin -12.2 -1.30049 -9.60874e-18, xmax 1.02694e-17 1.30049 3.60076m 
gts area: 163.392 
yplus max: 181.113, yplus min: 0.0189704 
position of yplus max: -12.042 1.28668 1.93393 
yplus prom: 8.60168 
forces: 3114.361692 -0.107694 -908.899097 
Drag coefficient: 0.868665 
torque (ref. CG): 0.150772 (roll) -1184.178121 (pitch) 0.656935 (yaw) 
----------------------------------------------------- 
step 39, time 0.019500, maxvel 30.000000, total vol 183256, vol(u>maxvel) 7.19042, cell count 373442
bounding box (containing cells with vel>maxvel): xmin -12.2754 -1.78161 -0.501423, xmax 0.419365 1.78176 4.03465m 
bounding box of vehicle: xmin -12.2 -1.30049 -9.60874e-18, xmax 1.02694e-17 1.30049 3.60076m 
gts area: 163.392 
yplus max: 181.144, yplus min: 0.0349858 
position of yplus max: -12.042 1.28668 1.93393 
yplus prom: 8.60455 
forces: 3109.288808 -0.110459 -908.960005 
Drag coefficient: 0.867250 
torque (ref. CG): 0.154643 (roll) -1191.651701 (pitch) 0.673801 (yaw) 
----------------------------------------------------- 
step 40, time 0.020000, maxvel 30.000000, total vol 183256, vol(u>maxvel) 7.17701, cell count 372312
bounding box (containing cells with vel>maxvel): xmin -12.2754 -1.78161 -0.501423, xmax 0.419448 1.78176 4.03464m 
bounding box of vehicle: xmin -12.2 -1.30049 -9.60874e-18, xmax 1.02694e-17 1.30049 3.60076m 
gts area: 163.392 
yplus max: 181.171, yplus min: 0.0133872 
position of yplus max: -12.042 1.28668 1.93393 
yplus prom: 8.60714 
forces: 3103.815431 -0.125470 -909.082758 
Drag coefficient: 0.865723 
torque (ref. CG): 0.175657 (roll) -1200.063222 (pitch) 0.765365 (yaw) 
----------------------------------------------------- 
step 41, time 0.020500, maxvel 30.000000, total vol 183256, vol(u>maxvel) 7.17085, cell count 371337
bounding box (containing cells with vel>maxvel): xmin -12.2754 -1.78139 -0.501423, xmax 0.419525 1.78161 4.03463m 
bounding box of vehicle: xmin -12.2 -1.30049 -9.60874e-18, xmax 1.02694e-17 1.30049 3.60076m 
gts area: 163.392 
yplus max: 181.195, yplus min: 0.0148586 
position of yplus max: -12.042 1.28668 1.93393 
yplus prom: 8.60946 
forces: 3098.059258 -0.144725 -909.123032 
Drag coefficient: 0.864118 
torque (ref. CG): 0.202615 (roll) -1208.367534 (pitch) 0.882821 (yaw) 
----------------------------------------------------- 
step 42, time 0.021000, maxvel 30.000000, total vol 183256, vol(u>maxvel) 7.15732, cell count 369975
bounding box (containing cells with vel>maxvel): xmin -12.2754 -1.78139 -0.501423, xmax 0.421466 1.78161 4.03463m 
bounding box of vehicle: xmin -12.2 -1.30049 -9.60874e-18, xmax 1.02694e-17 1.30049 3.60076m 
gts area: 163.392 
yplus max: 181.215, yplus min: 0.01357 
position of yplus max: -12.042 1.28668 1.93393 
yplus prom: 8.61156 
forces: 3092.021446 -0.155656 -909.176535 
Drag coefficient: 0.862433 
torque (ref. CG): 0.217918 (roll) -1217.146840 (pitch) 0.949501 (yaw) 
----------------------------------------------------- 
step 43, time 0.021500, maxvel 30.000000, total vol 183256, vol(u>maxvel) 7.1492, cell count 368641
bounding box (containing cells with vel>maxvel): xmin -12.2754 -1.78116 -0.502148, xmax 0.421558 1.78144 4.02902m 
bounding box of vehicle: xmin -12.2 -1.30049 -9.60874e-18, xmax 1.02694e-17 1.30049 3.60076m 
gts area: 163.392 
yplus max: 181.232, yplus min: 0.0278238 
position of yplus max: -12.042 1.28668 1.93393 
yplus prom: 8.61349 
forces: 3085.949505 -0.174401 -909.172828 
Drag coefficient: 0.860740 
torque (ref. CG): 0.244161 (roll) -1225.624942 (pitch) 1.063846 (yaw) 
----------------------------------------------------- 
step 44, time 0.022000, maxvel 30.000000, total vol 183256, vol(u>maxvel) 7.14556, cell count 367539
bounding box (containing cells with vel>maxvel): xmin -12.2754 -1.78094 -0.502148, xmax 0.421663 1.78127 4.02902m 
bounding box of vehicle: xmin -12.2 -1.30049 -9.60874e-18, xmax 1.02694e-17 1.30049 3.60076m 
gts area: 163.392 
yplus max: 181.246, yplus min: 0.032255 
position of yplus max: -12.042 1.28668 1.93393 
yplus prom: 8.61535 
forces: 3079.866758 -0.190579 -909.176606 
Drag coefficient: 0.859043 
torque (ref. CG): 0.266810 (roll) -1234.163839 (pitch) 1.162531 (yaw) 
----------------------------------------------------- 
step 45, time 0.022500, maxvel 30.000000, total vol 183256, vol(u>maxvel) 7.13061, cell count 366423
bounding box (containing cells with vel>maxvel): xmin -12.2754 -1.78075 -0.502148, xmax 0.421719 1.78127 4.029m 
bounding box of vehicle: xmin -12.2 -1.30049 -9.60874e-18, xmax 1.02694e-17 1.30049 3.60076m 
gts area: 163.392 
yplus max: 181.258, yplus min: 0.036359 
position of yplus max: -12.042 1.28668 1.93393 
yplus prom: 8.61701 
forces: 3073.665201 -0.206999 -909.174011 
Drag coefficient: 0.857313 
torque (ref. CG): 0.289798 (roll) -1242.830188 (pitch) 1.262692 (yaw) 
----------------------------------------------------- 
step 46, time 0.023000, maxvel 30.000000, total vol 183256, vol(u>maxvel) 7.11559, cell count 365127
bounding box (containing cells with vel>maxvel): xmin -12.2754 -1.78067 -0.502148, xmax 0.421777 1.78125 4.029m 
bounding box of vehicle: xmin -12.2 -1.30049 -9.60874e-18, xmax 1.02694e-17 1.30049 3.60076m 
gts area: 163.392 
yplus max: 181.268, yplus min: 0.0396926 
position of yplus max: -12.042 1.28668 1.93393 
yplus prom: 8.61845 
forces: 3067.465147 -0.223587 -909.110199 
Drag coefficient: 0.855584 
torque (ref. CG): 0.313021 (roll) -1251.121010 (pitch) 1.363879 (yaw) 
----------------------------------------------------- 
step 47, time 0.023500, maxvel 30.000000, total vol 183256, vol(u>maxvel) 7.09722, cell count 363495
bounding box (containing cells with vel>maxvel): xmin -12.2754 -1.78067 -0.502706, xmax 0.421838 1.78125 4.029m 
bounding box of vehicle: xmin -12.2 -1.30049 -9.60874e-18, xmax 1.02694e-17 1.30049 3.60076m 
gts area: 163.392 
yplus max: 181.275, yplus min: 0.0315687 
position of yplus max: -12.042 1.28668 1.93393 
yplus prom: 8.6197 
forces: 3061.400587 -0.236938 -908.964258 
Drag coefficient: 0.853893 
torque (ref. CG): 0.331713 (roll) -1258.721154 (pitch) 1.445322 (yaw) 
----------------------------------------------------- 
step 48, time 0.024000, maxvel 30.000000, total vol 183256, vol(u>maxvel) 7.07988, cell count 362287
bounding box (containing cells with vel>maxvel): xmin -12.2754 -1.78067 -0.502706, xmax 0.421904 1.78125 4.02899m 
bounding box of vehicle: xmin -12.2 -1.30049 -9.60874e-18, xmax 1.02694e-17 1.30049 3.60076m 
gts area: 163.392 
yplus max: 181.281, yplus min: 0.0569407 
position of yplus max: -12.042 1.28668 1.93393 
yplus prom: 8.62074 
forces: 3055.375207 -0.244294 -908.788769 
Drag coefficient: 0.852212 
torque (ref. CG): 0.342012 (roll) -1266.086203 (pitch) 1.490194 (yaw) 
----------------------------------------------------- 
step 49, time 0.024500, maxvel 30.000000, total vol 183256, vol(u>maxvel) 7.06436, cell count 361000
bounding box (containing cells with vel>maxvel): xmin -12.2754 -1.78067 -0.502706, xmax 0.421904 1.78125 4.02899m 
bounding box of vehicle: xmin -12.2 -1.30049 -9.60874e-18, xmax 1.02694e-17 1.30049 3.60076m 
gts area: 163.392 
yplus max: 181.286, yplus min: 0.0588371 
position of yplus max: -12.042 1.28668 1.93393 
yplus prom: 8.62159 
forces: 3049.348991 -0.255097 -908.587084 
Drag coefficient: 0.850531 
torque (ref. CG): 0.357136 (roll) -1273.292623 (pitch) 1.556093 (yaw) 
----------------------------------------------------- 
step 50, time 0.025000, maxvel 30.000000, total vol 183256, vol(u>maxvel) 7.04081, cell count 359565
bounding box (containing cells with vel>maxvel): xmin -12.2754 -1.78067 -0.502706, xmax 0.421976 1.78125 4.02898m 
bounding box of vehicle: xmin -12.2 -1.30049 -9.60874e-18, xmax 1.02694e-17 1.30049 3.60076m 
gts area: 163.392 
yplus max: 181.289, yplus min: 0.0170013 
position of yplus max: -12.042 1.28668 1.93393 
yplus prom: 8.62225 
forces: 3043.264985 -0.261637 -908.364190 
Drag coefficient: 0.848834 
torque (ref. CG): 0.366292 (roll) -1280.450577 (pitch) 1.595987 (yaw) 
----------------------------------------------------- 
step 51, time 0.025500, maxvel 30.000000, total vol 183256, vol(u>maxvel) 7.02404, cell count 357717
bounding box (containing cells with vel>maxvel): xmin -12.2754 -1.7805 -0.503136, xmax 0.421976 1.78108 4.02898m 
bounding box of vehicle: xmin -12.2 -1.30049 -9.60874e-18, xmax 1.02694e-17 1.30049 3.60076m 
gts area: 163.392 
yplus max: 181.291, yplus min: 0.0519301 
position of yplus max: -12.042 1.28668 1.93393 
yplus prom: 8.62274 
forces: 3037.090406 -0.259569 -908.197880 
Drag coefficient: 0.847112 
torque (ref. CG): 0.363397 (roll) -1288.080499 (pitch) 1.583374 (yaw) 
----------------------------------------------------- 
step 52, time 0.026000, maxvel 30.000000, total vol 183256, vol(u>maxvel) 7.01287, cell count 356199
bounding box (containing cells with vel>maxvel): xmin -12.2754 -1.7805 -0.503136, xmax 0.422052 1.78108 4.02897m 
bounding box of vehicle: xmin -12.2 -1.30049 -9.60874e-18, xmax 1.02694e-17 1.30049 3.60076m 
gts area: 163.392 
yplus max: 181.292, yplus min: 0.0564554 
position of yplus max: -12.042 1.28668 1.93393 
yplus prom: 8.62307 
forces: 3031.026696 -0.255383 -908.058323 
Drag coefficient: 0.845421 
torque (ref. CG): 0.357536 (roll) -1295.718394 (pitch) 1.557833 (yaw) 
----------------------------------------------------- 
step 53, time 0.026500, maxvel 30.000000, total vol 183256, vol(u>maxvel) 6.99984, cell count 354949
bounding box (containing cells with vel>maxvel): xmin -12.2754 -1.7805 -0.503136, xmax 0.422052 1.78108 4.02617m 
bounding box of vehicle: xmin -12.2 -1.30049 -9.60874e-18, xmax 1.02694e-17 1.30049 3.60076m 
gts area: 163.392 
yplus max: 181.292, yplus min: 0.024464 
position of yplus max: -12.042 1.28668 1.93393 
yplus prom: 8.62325 
forces: 3025.209272 -0.240694 -907.932189 
Drag coefficient: 0.843798 
torque (ref. CG): 0.336972 (roll) -1303.093370 (pitch) 1.468233 (yaw) 
----------------------------------------------------- 
step 54, time 0.027000, maxvel 30.000000, total vol 183256, vol(u>maxvel) 6.97682, cell count 353256
bounding box (containing cells with vel>maxvel): xmin -12.2754 -1.7805 -0.503136, xmax 0.422052 1.78108 4.02611m 
bounding box of vehicle: xmin -12.2 -1.30049 -9.60874e-18, xmax 1.02694e-17 1.30049 3.60076m 
gts area: 163.392 
yplus max: 181.291, yplus min: 0.0483855 
position of yplus max: -12.042 1.28668 1.93393 
yplus prom: 8.62336 
forces: 3019.485654 -0.248347 -907.653567 
Drag coefficient: 0.842202 
torque (ref. CG): 0.347686 (roll) -1309.406844 (pitch) 1.514917 (yaw) 
----------------------------------------------------- 
step 55, time 0.027500, maxvel 30.000000, total vol 183256, vol(u>maxvel) 6.95741, cell count 351472
bounding box (containing cells with vel>maxvel): xmin -12.2754 -1.78043 -0.503136, xmax 0.494117 1.78103 4.02611m 
bounding box of vehicle: xmin -12.2 -1.30049 -9.60874e-18, xmax 1.02694e-17 1.30049 3.60076m 
gts area: 163.392 
yplus max: 181.289, yplus min: 0.0427247 
position of yplus max: -12.042 1.28668 1.93393 
yplus prom: 8.62339 
forces: 3013.566669 -0.230161 -907.389023 
Drag coefficient: 0.840551 
torque (ref. CG): 0.322225 (roll) -1316.079704 (pitch) 1.403980 (yaw) 
----------------------------------------------------- 
step 56, time 0.028000, maxvel 30.000000, total vol 183256, vol(u>maxvel) 6.93735, cell count 349970
bounding box (containing cells with vel>maxvel): xmin -12.2754 -1.78043 -0.503136, xmax 0.497006 1.78103 4.0261m 
bounding box of vehicle: xmin -12.2 -1.30049 -9.60874e-18, xmax 1.02694e-17 1.30049 3.60076m 
gts area: 163.392 
yplus max: 181.286, yplus min: 0.019267 
position of yplus max: -12.042 1.28668 1.93393 
yplus prom: 8.62329 
forces: 3007.606132 -0.215280 -907.205405 
Drag coefficient: 0.838888 
torque (ref. CG): 0.301391 (roll) -1323.304385 (pitch) 1.313205 (yaw) 
----------------------------------------------------- 
step 57, time 0.028500, maxvel 30.000000, total vol 183256, vol(u>maxvel) 6.91744, cell count 348504
bounding box (containing cells with vel>maxvel): xmin -12.2754 -1.78043 -0.503136, xmax 0.497252 1.78086 4.0261m 
bounding box of vehicle: xmin -12.2 -1.30049 -9.60874e-18, xmax 1.02694e-17 1.30049 3.60076m 
gts area: 163.392 
yplus max: 181.283, yplus min: 0.0222683 
position of yplus max: -12.042 1.28668 1.93393 
yplus prom: 8.62308 
forces: 3001.665435 -0.199694 -907.054393 
Drag coefficient: 0.837231 
torque (ref. CG): 0.279571 (roll) -1330.700191 (pitch) 1.218132 (yaw) 
----------------------------------------------------- 
step 58, time 0.029000, maxvel 30.000000, total vol 183256, vol(u>maxvel) 6.89497, cell count 346528
bounding box (containing cells with vel>maxvel): xmin -12.2754 -1.78027 -0.503136, xmax 0.497322 1.78086 3.95977m 
bounding box of vehicle: xmin -12.2 -1.30049 -9.60874e-18, xmax 1.02694e-17 1.30049 3.60076m 
gts area: 163.392 
yplus max: 181.28, yplus min: 0.0289851 
position of yplus max: -12.042 1.28668 1.93393 
yplus prom: 8.62277 
forces: 2996.048459 -0.185660 -906.900775 
Drag coefficient: 0.835664 
torque (ref. CG): 0.259924 (roll) -1337.626882 (pitch) 1.132528 (yaw) 
----------------------------------------------------- 
step 59, time 0.029500, maxvel 30.000000, total vol 183256, vol(u>maxvel) 6.8759, cell count 344917
bounding box (containing cells with vel>maxvel): xmin -12.2754 -1.78027 -0.503136, xmax 0.497394 1.78086 3.95977m 
bounding box of vehicle: xmin -12.2 -1.30049 -9.60874e-18, xmax 1.02694e-17 1.30049 3.60076m 
gts area: 163.392 
yplus max: 181.276, yplus min: 0.0365911 
position of yplus max: -12.042 1.28668 1.93393 
yplus prom: 8.62237 
forces: 2990.504499 -0.167968 -906.722040 
Drag coefficient: 0.834118 
torque (ref. CG): 0.235155 (roll) -1344.298148 (pitch) 1.024605 (yaw) 
----------------------------------------------------- 
step 60, time 0.030000, maxvel 30.000000, total vol 183256, vol(u>maxvel) 6.86623, cell count 343606
bounding box (containing cells with vel>maxvel): xmin -12.2754 -1.78027 -0.503136, xmax 0.497466 1.78086 3.95958m 
bounding box of vehicle: xmin -12.2 -1.30049 -9.60874e-18, xmax 1.02694e-17 1.30049 3.60076m 
gts area: 163.392 
yplus max: 181.272, yplus min: 0.0526124 
position of yplus max: -12.042 1.28668 1.93393 
yplus prom: 8.62188 
forces: 2984.964456 -0.153988 -906.503988 
Drag coefficient: 0.832573 
torque (ref. CG): 0.215583 (roll) -1350.724088 (pitch) 0.939324 (yaw) 
----------------------------------------------------- 
step 61, time 0.030500, maxvel 30.000000, total vol 183256, vol(u>maxvel) 6.85439, cell count 342142
bounding box (containing cells with vel>maxvel): xmin -12.2754 -1.78027 -0.503136, xmax 0.497538 1.78086 3.95958m 
bounding box of vehicle: xmin -12.2 -1.30049 -9.60874e-18, xmax 1.02694e-17 1.30049 3.60076m 
gts area: 163.392 
yplus max: 181.267, yplus min: 0.0313688 
position of yplus max: -12.042 1.28668 1.93393 
yplus prom: 8.62129 
forces: 2979.347978 -0.141732 -906.260719 
Drag coefficient: 0.831006 
torque (ref. CG): 0.198425 (roll) -1357.103218 (pitch) 0.864565 (yaw) 
----------------------------------------------------- 
step 62, time 0.031000, maxvel 30.000000, total vol 183256, vol(u>maxvel) 6.8412, cell count 340427
bounding box (containing cells with vel>maxvel): xmin -12.2754 -1.78027 -0.503136, xmax 0.497612 1.78086 3.95958m 
bounding box of vehicle: xmin -12.2 -1.30049 -9.60874e-18, xmax 1.02694e-17 1.30049 3.60076m 
gts area: 163.392 
yplus max: 181.262, yplus min: 0.0363891 
position of yplus max: -12.042 1.28668 1.93393 
yplus prom: 8.62062 
forces: 2973.607402 -0.116213 -906.084174 
Drag coefficient: 0.829405 
torque (ref. CG): 0.162698 (roll) -1364.063097 (pitch) 0.708900 (yaw) 
----------------------------------------------------- 
step 63, time 0.031500, maxvel 30.000000, total vol 183256, vol(u>maxvel) 6.81633, cell count 338586
bounding box (containing cells with vel>maxvel): xmin -12.2754 -1.78027 -0.503136, xmax 0.497612 1.78062 3.95946m 
bounding box of vehicle: xmin -12.2 -1.30049 -9.60874e-18, xmax 1.02694e-17 1.30049 3.60076m 
gts area: 163.392 
yplus max: 181.257, yplus min: 0.0418667 
position of yplus max: -12.042 1.28668 1.93393 
yplus prom: 8.61987 
forces: 2967.845971 -0.106761 -905.888627 
Drag coefficient: 0.827798 
torque (ref. CG): 0.149465 (roll) -1370.936264 (pitch) 0.651241 (yaw) 
----------------------------------------------------- 
step 64, time 0.032000, maxvel 30.000000, total vol 183256, vol(u>maxvel) 6.80632, cell count 336603
bounding box (containing cells with vel>maxvel): xmin -12.2754 -1.78003 -0.503136, xmax 0.497689 1.78062 3.95946m 
bounding box of vehicle: xmin -12.2 -1.30049 -9.60874e-18, xmax 1.02694e-17 1.30049 3.60076m 
gts area: 163.392 
yplus max: 181.252, yplus min: 0.0450965 
position of yplus max: -12.042 1.28668 1.93393 
yplus prom: 8.61907 
forces: 2962.064429 -0.101255 -905.712478 
Drag coefficient: 0.826186 
torque (ref. CG): 0.141758 (roll) -1377.955913 (pitch) 0.617658 (yaw) 
----------------------------------------------------- 
step 65, time 0.032500, maxvel 30.000000, total vol 183256, vol(u>maxvel) 6.79075, cell count 334875
bounding box (containing cells with vel>maxvel): xmin -12.2754 -1.78003 -0.503136, xmax 0.497689 1.78062 3.9594m 
bounding box of vehicle: xmin -12.2 -1.30049 -9.60874e-18, xmax 1.02694e-17 1.30049 3.60076m 
gts area: 163.392 
yplus max: 181.247, yplus min: 0.0471513 
position of yplus max: -12.042 1.28668 1.93393 
yplus prom: 8.61824 
forces: 2956.229264 -0.075251 -905.561530 
Drag coefficient: 0.824558 
torque (ref. CG): 0.105351 (roll) -1385.204367 (pitch) 0.459029 (yaw) 
----------------------------------------------------- 
step 66, time 0.033000, maxvel 30.000000, total vol 183256, vol(u>maxvel) 6.78155, cell count 333065
bounding box (containing cells with vel>maxvel): xmin -12.2754 -1.78003 -0.503136, xmax 0.497772 1.78062 3.95936m 
bounding box of vehicle: xmin -12.2 -1.30049 -9.60874e-18, xmax 1.02694e-17 1.30049 3.60076m 
gts area: 163.392 
yplus max: 181.241, yplus min: 0.045117 
position of yplus max: -12.042 1.28668 1.93393 
yplus prom: 8.61734 
forces: 2950.390309 -0.065472 -905.401233 
Drag coefficient: 0.822929 
torque (ref. CG): 0.091661 (roll) -1392.401087 (pitch) 0.399381 (yaw) 
----------------------------------------------------- 
step 67, time 0.033500, maxvel 30.000000, total vol 183256, vol(u>maxvel) 6.76785, cell count 331248
bounding box (containing cells with vel>maxvel): xmin -12.2754 -1.78003 -0.503136, xmax 0.497772 1.78062 3.95934m 
bounding box of vehicle: xmin -12.2 -1.30049 -9.60874e-18, xmax 1.02694e-17 1.30049 3.60076m 
gts area: 163.392 
yplus max: 181.236, yplus min: 0.0482828 
position of yplus max: -12.042 1.28668 1.93393 
yplus prom: 8.61639 
forces: 2944.552673 -0.061901 -905.201783 
Drag coefficient: 0.821301 
torque (ref. CG): 0.086662 (roll) -1399.357134 (pitch) 0.377598 (yaw) 
----------------------------------------------------- 
step 68, time 0.034000, maxvel 30.000000, total vol 183256, vol(u>maxvel) 6.73513, cell count 329073
bounding box (containing cells with vel>maxvel): xmin -12.2754 -1.78003 -0.503136, xmax 0.497772 1.78062 3.95932m 
bounding box of vehicle: xmin -12.2 -1.30049 -9.60874e-18, xmax 1.02694e-17 1.30049 3.60076m 
gts area: 163.392 
yplus max: 181.23, yplus min: 0.0459139 
position of yplus max: -12.042 1.28668 1.93393 
yplus prom: 8.61536 
forces: 2938.826355 -0.040718 -905.033875 
Drag coefficient: 0.819704 
torque (ref. CG): 0.057005 (roll) -1406.349742 (pitch) 0.248378 (yaw) 
----------------------------------------------------- 
step 69, time 0.034500, maxvel 30.000000, total vol 183256, vol(u>maxvel) 6.70851, cell count 326869
bounding box (containing cells with vel>maxvel): xmin -12.2754 -1.78003 -0.503136, xmax 0.497856 1.78062 3.95476m 
bounding box of vehicle: xmin -12.2 -1.30049 -9.60874e-18, xmax 1.02694e-17 1.30049 3.60076m 
gts area: 163.392 
yplus max: 181.224, yplus min: 0.0474153 
position of yplus max: -12.042 1.28668 1.93393 
yplus prom: 8.61426 
forces: 2933.225714 -0.036947 -904.768354 
Drag coefficient: 0.818142 
torque (ref. CG): 0.051725 (roll) -1412.570960 (pitch) 0.225374 (yaw) 
----------------------------------------------------- 
step 70, time 0.035000, maxvel 30.000000, total vol 183256, vol(u>maxvel) 6.68934, cell count 325070
bounding box (containing cells with vel>maxvel): xmin -12.2754 -1.78003 -0.503136, xmax 0.497856 1.78062 3.95476m 
bounding box of vehicle: xmin -12.2 -1.30049 -9.60874e-18, xmax 1.02694e-17 1.30049 3.60076m 
gts area: 163.392 
yplus max: 181.218, yplus min: 0.046825 
position of yplus max: -12.042 1.28668 1.93393 
yplus prom: 8.61309 
forces: 2927.636406 -0.029088 -904.528770 
Drag coefficient: 0.816583 
torque (ref. CG): 0.040724 (roll) -1418.934527 (pitch) 0.177438 (yaw) 
----------------------------------------------------- 
step 71, time 0.035500, maxvel 30.000000, total vol 183256, vol(u>maxvel) 6.65892, cell count 323225
bounding box (containing cells with vel>maxvel): xmin -12.2754 -1.78003 -0.503136, xmax 0.571406 1.78036 3.95476m 
bounding box of vehicle: xmin -12.2 -1.30049 -9.60874e-18, xmax 1.02694e-17 1.30049 3.60076m 
gts area: 163.392 
yplus max: 181.213, yplus min: 0.0462332 
position of yplus max: -12.042 1.28668 1.93393 
yplus prom: 8.61187 
forces: 2922.005199 -0.018409 -904.259782 
Drag coefficient: 0.815012 
torque (ref. CG): 0.025773 (roll) -1425.177394 (pitch) 0.112295 (yaw) 
----------------------------------------------------- 
step 72, time 0.036000, maxvel 30.000000, total vol 183256, vol(u>maxvel) 6.65208, cell count 321616
bounding box (containing cells with vel>maxvel): xmin -12.2754 -1.77977 -0.503136, xmax 0.571931 1.78036 3.95476m 
bounding box of vehicle: xmin -12.2 -1.30049 -9.60874e-18, xmax 1.02694e-17 1.30049 3.60076m 
gts area: 163.392 
yplus max: 181.207, yplus min: 0.045638 
position of yplus max: -12.042 1.28668 1.93393 
yplus prom: 8.61059 
forces: 2916.353766 -0.007244 -903.984502 
Drag coefficient: 0.813436 
torque (ref. CG): 0.010142 (roll) -1431.410189 (pitch) 0.044188 (yaw) 
----------------------------------------------------- 
step 73, time 0.036500, maxvel 30.000000, total vol 183256, vol(u>maxvel) 6.62854, cell count 319633
bounding box (containing cells with vel>maxvel): xmin -12.2754 -1.77977 -0.503136, xmax 0.572032 1.78036 3.95476m 
bounding box of vehicle: xmin -12.2 -1.30049 -9.60874e-18, xmax 1.02694e-17 1.30049 3.60076m 
gts area: 163.392 
yplus max: 181.201, yplus min: 0.0450404 
position of yplus max: -12.042 1.28668 1.93393 
yplus prom: 8.60926 
forces: 2910.718644 -0.007385 -903.705369 
Drag coefficient: 0.811864 
torque (ref. CG): 0.010339 (roll) -1437.596647 (pitch) 0.045048 (yaw) 
----------------------------------------------------- 
step 74, time 0.037000, maxvel 30.000000, total vol 183256, vol(u>maxvel) 6.61001, cell count 317961
bounding box (containing cells with vel>maxvel): xmin -12.2754 -1.77977 -0.503136, xmax 0.572221 1.78036 3.95476m 
bounding box of vehicle: xmin -12.2 -1.30049 -9.60874e-18, xmax 1.02694e-17 1.30049 3.60076m 
gts area: 163.392 
yplus max: 181.195, yplus min: 0.0444393 
position of yplus max: -12.042 1.28668 1.93393 
yplus prom: 8.60788 
forces: 2905.086768 -0.001323 -903.455320 
Drag coefficient: 0.810293 
torque (ref. CG): 0.001852 (roll) -1443.955975 (pitch) 0.008071 (yaw) 
----------------------------------------------------- 
step 75, time 0.037500, maxvel 30.000000, total vol 183256, vol(u>maxvel) 6.60343, cell count 316286
bounding box (containing cells with vel>maxvel): xmin -12.2754 -1.77977 -0.503136, xmax 0.572221 1.78036 3.95476m 
bounding box of vehicle: xmin -12.2 -1.30049 -9.60874e-18, xmax 1.02694e-17 1.30049 3.60076m 
gts area: 163.392 
yplus max: 181.189, yplus min: 0.0438359 
position of yplus max: -12.042 1.28668 1.93393 
yplus prom: 8.60645 
forces: 2899.465378 0.012078 -903.215216 
Drag coefficient: 0.808725 
torque (ref. CG): -0.016909 (roll) -1450.361290 (pitch) -0.073674 (yaw) 
----------------------------------------------------- 
step 76, time 0.038000, maxvel 30.000000, total vol 183256, vol(u>maxvel) 6.59713, cell count 314710
bounding box (containing cells with vel>maxvel): xmin -12.2754 -1.77977 -0.503136, xmax 0.57231 1.78036 3.95476m 
bounding box of vehicle: xmin -12.2 -1.30049 -9.60874e-18, xmax 1.02694e-17 1.30049 3.60076m 
gts area: 163.392 
yplus max: 181.184, yplus min: 0.0432302 
position of yplus max: -12.042 1.28668 1.93393 
yplus prom: 8.60498 
forces: 2893.926374 0.013101 -902.909179 
Drag coefficient: 0.807180 
torque (ref. CG): -0.018342 (roll) -1456.249069 (pitch) -0.079918 (yaw) 
----------------------------------------------------- 
step 77, time 0.038500, maxvel 30.000000, total vol 183256, vol(u>maxvel) 6.58014, cell count 313004
bounding box (containing cells with vel>maxvel): xmin -12.2754 -1.77977 -0.503136, xmax 0.572396 1.78036 3.95445m 
bounding box of vehicle: xmin -12.2 -1.30049 -9.60874e-18, xmax 1.02694e-17 1.30049 3.60076m 
gts area: 163.392 
yplus max: 181.178, yplus min: 0.0426221 
position of yplus max: -12.042 1.28668 1.93393 
yplus prom: 8.60348 
forces: 2888.475203 0.011103 -902.587668 
Drag coefficient: 0.805660 
torque (ref. CG): -0.015544 (roll) -1461.919488 (pitch) -0.067727 (yaw) 
----------------------------------------------------- 
step 78, time 0.039000, maxvel 30.000000, total vol 183256, vol(u>maxvel) 6.5602, cell count 311290
bounding box (containing cells with vel>maxvel): xmin -12.2754 -1.77977 -0.503136, xmax 0.572396 1.78008 3.95445m 
bounding box of vehicle: xmin -12.2 -1.30049 -9.60874e-18, xmax 1.02694e-17 1.30049 3.60076m 
gts area: 163.392 
yplus max: 181.172, yplus min: 0.0251092 
position of yplus max: -12.042 1.28668 1.93393 
yplus prom: 8.60196 
forces: 2883.053673 0.013750 -902.260618 
Drag coefficient: 0.804148 
torque (ref. CG): -0.019251 (roll) -1467.514630 (pitch) -0.083878 (yaw) 
----------------------------------------------------- 
step 79, time 0.039500, maxvel 30.000000, total vol 183256, vol(u>maxvel) 6.55637, cell count 309823
bounding box (containing cells with vel>maxvel): xmin -12.2754 -1.7795 -0.503136, xmax 0.572482 1.78008 3.95445m 
bounding box of vehicle: xmin -12.2 -1.30049 -9.60874e-18, xmax 1.02694e-17 1.30049 3.60076m 
gts area: 163.392 
yplus max: 181.167, yplus min: 0.0356813 
position of yplus max: -12.042 1.28668 1.93393 
yplus prom: 8.6004 
forces: 2877.637609 0.016081 -901.904137 
Drag coefficient: 0.802637 
torque (ref. CG): -0.022514 (roll) -1472.922583 (pitch) -0.098096 (yaw) 
----------------------------------------------------- 
step 80, time 0.040000, maxvel 30.000000, total vol 183256, vol(u>maxvel) 6.54917, cell count 308631
bounding box (containing cells with vel>maxvel): xmin -12.2754 -1.7795 -0.503136, xmax 0.572482 1.78008 3.95445m 
bounding box of vehicle: xmin -12.2 -1.30049 -9.60874e-18, xmax 1.02694e-17 1.30049 3.60076m 
gts area: 163.392 
yplus max: 181.161, yplus min: 0.040785 
position of yplus max: -12.042 1.28668 1.93393 
yplus prom: 8.5988 
forces: 2872.229808 0.021651 -901.579518 
Drag coefficient: 0.801129 
torque (ref. CG): -0.030311 (roll) -1478.513331 (pitch) -0.132070 (yaw) 
----------------------------------------------------- 
step 81, time 0.040500, maxvel 30.000000, total vol 183256, vol(u>maxvel) 6.5348, cell count 307284
bounding box (containing cells with vel>maxvel): xmin -12.2754 -1.7795 -0.503136, xmax 0.572569 1.78008 3.95445m 
bounding box of vehicle: xmin -12.2 -1.30049 -9.60874e-18, xmax 1.02694e-17 1.30049 3.60076m 
gts area: 163.392 
yplus max: 181.155, yplus min: 0.0401705 
position of yplus max: -12.042 1.28668 1.93393 
yplus prom: 8.59717 
forces: 2866.853426 0.020009 -901.231578 
Drag coefficient: 0.799629 
torque (ref. CG): -0.028012 (roll) -1483.917830 (pitch) -0.122053 (yaw) 
----------------------------------------------------- 
step 82, time 0.041000, maxvel 30.000000, total vol 183256, vol(u>maxvel) 6.52253, cell count 306007
bounding box (containing cells with vel>maxvel): xmin -12.2754 -1.7795 -0.503136, xmax 0.572569 1.78008 3.95445m 
bounding box of vehicle: xmin -12.2 -1.30049 -9.60874e-18, xmax 1.02694e-17 1.30049 3.60076m 
gts area: 163.392 
yplus max: 181.15, yplus min: 0.0395554 
position of yplus max: -12.042 1.28668 1.93393 
yplus prom: 8.5955 
forces: 2861.500803 0.022348 -900.928046 
Drag coefficient: 0.798136 
torque (ref. CG): -0.031287 (roll) -1489.559957 (pitch) -0.136323 (yaw) 
----------------------------------------------------- 
step 83, time 0.041500, maxvel 30.000000, total vol 183256, vol(u>maxvel) 6.48821, cell count 304683
bounding box (containing cells with vel>maxvel): xmin -12.2754 -1.7795 -0.503136, xmax 0.572569 1.78008 3.95422m 
bounding box of vehicle: xmin -12.2 -1.30049 -9.60874e-18, xmax 1.02694e-17 1.30049 3.60076m 
gts area: 163.392 
yplus max: 181.145, yplus min: 0.0389398 
position of yplus max: -12.042 1.28668 1.93393 
yplus prom: 8.5938 
forces: 2856.157834 0.018802 -900.627252 
Drag coefficient: 0.796646 
torque (ref. CG): -0.026323 (roll) -1495.205268 (pitch) -0.114695 (yaw) 
----------------------------------------------------- 
step 84, time 0.042000, maxvel 30.000000, total vol 183256, vol(u>maxvel) 6.46558, cell count 303319
bounding box (containing cells with vel>maxvel): xmin -12.2754 -1.7795 -0.503136, xmax 0.572658 1.78008 3.95391m 
bounding box of vehicle: xmin -12.2 -1.30049 -9.60874e-18, xmax 1.02694e-17 1.30049 3.60076m 
gts area: 163.392 
yplus max: 181.139, yplus min: 0.0383277 
position of yplus max: -12.042 1.28668 1.93393 
yplus prom: 8.59208 
forces: 2850.809051 0.019192 -900.300447 
Drag coefficient: 0.795154 
torque (ref. CG): -0.026869 (roll) -1500.700057 (pitch) -0.117073 (yaw) 
----------------------------------------------------- 
step 85, time 0.042500, maxvel 30.000000, total vol 183256, vol(u>maxvel) 6.45426, cell count 302198
bounding box (containing cells with vel>maxvel): xmin -12.2754 -1.7795 -0.503136, xmax 0.572658 1.77987 3.95211m 
bounding box of vehicle: xmin -12.2 -1.30049 -9.60874e-18, xmax 1.02694e-17 1.30049 3.60076m 
gts area: 163.392 
yplus max: 181.134, yplus min: 0.0377164 
position of yplus max: -12.042 1.28668 1.93393 
yplus prom: 8.59033 
forces: 2845.451357 0.019263 -899.989936 
Drag coefficient: 0.793660 
torque (ref. CG): -0.026968 (roll) -1506.306710 (pitch) -0.117504 (yaw) 
----------------------------------------------------- 
step 86, time 0.043000, maxvel 30.000000, total vol 183256, vol(u>maxvel) 6.43482, cell count 301024
bounding box (containing cells with vel>maxvel): xmin -12.2754 -1.77937 -0.503136, xmax 0.572658 1.77977 3.95211m 
bounding box of vehicle: xmin -12.2 -1.30049 -9.60874e-18, xmax 1.02694e-17 1.30049 3.60076m 
gts area: 163.392 
yplus max: 181.129, yplus min: 0.0371078 
position of yplus max: -12.042 1.28668 1.93393 
yplus prom: 8.58856 
forces: 2840.131290 0.009967 -899.687851 
Drag coefficient: 0.792176 
torque (ref. CG): -0.013954 (roll) -1511.912083 (pitch) -0.060798 (yaw) 
----------------------------------------------------- 
step 87, time 0.043500, maxvel 30.000000, total vol 183256, vol(u>maxvel) 6.42405, cell count 299793
bounding box (containing cells with vel>maxvel): xmin -12.2754 -1.77937 -0.503136, xmax 0.572658 1.77977 3.9521m 
bounding box of vehicle: xmin -12.2 -1.30049 -9.60874e-18, xmax 1.02694e-17 1.30049 3.60076m 
gts area: 163.392 
yplus max: 181.123, yplus min: 0.0365072 
position of yplus max: -12.042 1.28668 1.93393 
yplus prom: 8.58677 
forces: 2834.867569 0.015780 -899.357591 
Drag coefficient: 0.790708 
torque (ref. CG): -0.022092 (roll) -1517.266709 (pitch) -0.096257 (yaw) 
----------------------------------------------------- 
step 88, time 0.044000, maxvel 30.000000, total vol 183256, vol(u>maxvel) 6.42126, cell count 298733
bounding box (containing cells with vel>maxvel): xmin -12.2754 -1.7792 -0.503136, xmax 0.646535 1.77977 3.9521m 
bounding box of vehicle: xmin -12.2 -1.30049 -9.60874e-18, xmax 1.02694e-17 1.30049 3.60076m 
gts area: 163.392 
yplus max: 181.118, yplus min: 0.0359122 
position of yplus max: -12.042 1.28668 1.93393 
yplus prom: 8.58496 
forces: 2829.646878 0.010209 -899.019177 
Drag coefficient: 0.789251 
torque (ref. CG): -0.014293 (roll) -1522.511350 (pitch) -0.062275 (yaw) 
----------------------------------------------------- 
step 89, time 0.044500, maxvel 30.000000, total vol 183256, vol(u>maxvel) 6.41262, cell count 297626
bounding box (containing cells with vel>maxvel): xmin -12.2754 -1.7792 -0.503136, xmax 0.646824 1.77955 3.9521m 
bounding box of vehicle: xmin -12.2 -1.30049 -9.60874e-18, xmax 1.02694e-17 1.30049 3.60076m 
gts area: 163.392 
yplus max: 181.113, yplus min: 0.0353258 
position of yplus max: -12.042 1.28668 1.93393 
yplus prom: 8.58313 
forces: 2824.438225 0.014494 -898.685916 
Drag coefficient: 0.787799 
torque (ref. CG): -0.020291 (roll) -1527.770575 (pitch) -0.088410 (yaw) 
----------------------------------------------------- 
step 90, time 0.045000, maxvel 30.000000, total vol 183256, vol(u>maxvel) 6.40184, cell count 296520
bounding box (containing cells with vel>maxvel): xmin -12.2754 -1.77909 -0.503136, xmax 0.647466 1.77955 3.9521m 
bounding box of vehicle: xmin -12.2 -1.30049 -9.60874e-18, xmax 1.02694e-17 1.30049 3.60076m 
gts area: 163.392 
yplus max: 181.108, yplus min: 0.0347518 
position of yplus max: -12.042 1.28668 1.93393 
yplus prom: 8.58128 
forces: 2819.253725 0.009196 -898.303795 
Drag coefficient: 0.786352 
torque (ref. CG): -0.012875 (roll) -1532.697932 (pitch) -0.056097 (yaw) 
----------------------------------------------------- 
step 91, time 0.045500, maxvel 30.000000, total vol 183256, vol(u>maxvel) 6.39516, cell count 295093
bounding box (containing cells with vel>maxvel): xmin -12.2753 -1.77909 -0.503136, xmax 0.647466 1.77955 3.9521m 
bounding box of vehicle: xmin -12.2 -1.30049 -9.60874e-18, xmax 1.02694e-17 1.30049 3.60076m 
gts area: 163.392 
yplus max: 181.103, yplus min: 0.0341925 
position of yplus max: -12.042 1.28668 1.93393 
yplus prom: 8.57942 
forces: 2814.089421 0.008663 -897.941066 
Drag coefficient: 0.784912 
torque (ref. CG): -0.012128 (roll) -1537.715313 (pitch) -0.052843 (yaw) 
----------------------------------------------------- 
step 92, time 0.046000, maxvel 30.000000, total vol 183256, vol(u>maxvel) 6.38257, cell count 293737
bounding box (containing cells with vel>maxvel): xmin -12.2753 -1.77909 -0.503136, xmax 0.648103 1.77921 3.9521m 
bounding box of vehicle: xmin -12.2 -1.30049 -9.60874e-18, xmax 1.02694e-17 1.30049 3.60076m 
gts area: 163.392 
yplus max: 181.098, yplus min: 0.0336498 
position of yplus max: -12.042 1.28668 1.93393 
yplus prom: 8.57754 
forces: 2808.957325 0.001519 -897.575550 
Drag coefficient: 0.783481 
torque (ref. CG): -0.002127 (roll) -1542.670601 (pitch) -0.009266 (yaw) 
----------------------------------------------------- 
step 93, time 0.046500, maxvel 30.000000, total vol 183256, vol(u>maxvel) 6.35845, cell count 292367
bounding box (containing cells with vel>maxvel): xmin -12.2753 -1.77877 -0.503466, xmax 0.648231 1.77921 3.9521m 
bounding box of vehicle: xmin -12.2 -1.30049 -9.60874e-18, xmax 1.02694e-17 1.30049 3.60076m 
gts area: 163.392 
yplus max: 181.094, yplus min: 0.0331308 
position of yplus max: -12.042 1.28668 1.93393 
yplus prom: 8.57567 
forces: 2803.841514 0.006600 -897.179630 
Drag coefficient: 0.782054 
torque (ref. CG): -0.009240 (roll) -1547.417621 (pitch) -0.040259 (yaw) 
----------------------------------------------------- 
step 94, time 0.047000, maxvel 30.000000, total vol 183256, vol(u>maxvel) 6.34505, cell count 290900
bounding box (containing cells with vel>maxvel): xmin -12.2753 -1.77877 -0.503466, xmax 0.648231 1.77921 3.9521m 
bounding box of vehicle: xmin -12.2 -1.30049 -9.60874e-18, xmax 1.02694e-17 1.30049 3.60076m 
gts area: 163.392 
yplus max: 181.089, yplus min: 0.0326351 
position of yplus max: -12.042 1.28668 1.93393 
yplus prom: 8.57378 
forces: 2798.726491 0.001958 -896.812501 
Drag coefficient: 0.780627 
torque (ref. CG): -0.002742 (roll) -1552.339169 (pitch) -0.011945 (yaw) 
----------------------------------------------------- 
step 95, time 0.047500, maxvel 30.000000, total vol 183256, vol(u>maxvel) 6.32862, cell count 289416
bounding box (containing cells with vel>maxvel): xmin -12.2753 -1.77877 -0.503466, xmax 0.648231 1.70785 3.9521m 
bounding box of vehicle: xmin -12.2 -1.30049 -9.60874e-18, xmax 1.02694e-17 1.30049 3.60076m 
gts area: 163.392 
yplus max: 181.084, yplus min: 0.0321709 
position of yplus max: -12.042 1.28668 1.93393 
yplus prom: 8.57188 
forces: 2793.610924 -0.000317 -896.421603 
Drag coefficient: 0.779200 
torque (ref. CG): 0.000443 (roll) -1557.116487 (pitch) 0.001931 (yaw) 
----------------------------------------------------- 
step 96, time 0.048000, maxvel 30.000000, total vol 183256, vol(u>maxvel) 6.31957, cell count 288243
bounding box (containing cells with vel>maxvel): xmin -12.2753 -1.77877 -0.503466, xmax 0.648231 1.70785 3.9521m 
bounding box of vehicle: xmin -12.2 -1.30049 -9.60874e-18, xmax 1.02694e-17 1.30049 3.60076m 
gts area: 163.392 
yplus max: 181.079, yplus min: 0.0317397 
position of yplus max: -12.042 1.28668 1.93393 
yplus prom: 8.56997 
forces: 2788.499888 -0.000198 -896.054890 
Drag coefficient: 0.777775 
torque (ref. CG): 0.000277 (roll) -1562.034987 (pitch) 0.001207 (yaw) 
----------------------------------------------------- 
step 97, time 0.048500, maxvel 30.000000, total vol 183256, vol(u>maxvel) 6.29208, cell count 286502
bounding box (containing cells with vel>maxvel): xmin -12.2753 -1.7073 -0.503466, xmax 0.648231 1.70785 3.9521m 
bounding box of vehicle: xmin -12.2 -1.30049 -9.60874e-18, xmax 1.02694e-17 1.30049 3.60076m 
gts area: 163.392 
yplus max: 181.075, yplus min: 0.031351 
position of yplus max: -12.042 1.28668 1.93393 
yplus prom: 8.56804 
forces: 2783.396891 -0.004212 -895.648680 
Drag coefficient: 0.776351 
torque (ref. CG): 0.005897 (roll) -1566.701298 (pitch) 0.025693 (yaw) 
----------------------------------------------------- 
step 98, time 0.049000, maxvel 30.000000, total vol 183256, vol(u>maxvel) 6.28044, cell count 285120
bounding box (containing cells with vel>maxvel): xmin -12.2753 -1.7073 -0.503466, xmax 0.648231 1.70785 3.9521m 
bounding box of vehicle: xmin -12.2 -1.30049 -9.60874e-18, xmax 1.02694e-17 1.30049 3.60076m 
gts area: 163.392 
yplus max: 181.07, yplus min: 0.0310052 
position of yplus max: -12.042 1.28668 1.93393 
yplus prom: 8.56609 
forces: 2778.327821 -0.008623 -895.279045 
Drag coefficient: 0.774937 
torque (ref. CG): 0.012073 (roll) -1571.543223 (pitch) 0.052603 (yaw) 
----------------------------------------------------- 
step 99, time 0.049500, maxvel 30.000000, total vol 183256, vol(u>maxvel) 6.2763, cell count 283827
bounding box (containing cells with vel>maxvel): xmin -12.2753 -1.7073 -0.503466, xmax 0.648231 1.70785 3.95209m 
bounding box of vehicle: xmin -12.2 -1.30049 -9.60874e-18, xmax 1.02694e-17 1.30049 3.60076m 
gts area: 163.392 
yplus max: 181.066, yplus min: 0.0307114 
position of yplus max: -12.042 1.28668 1.93393 
yplus prom: 8.56414 
forces: 2773.289692 -0.010870 -894.890000 
Drag coefficient: 0.773532 
torque (ref. CG): 0.015217 (roll) -1576.223434 (pitch) 0.066305 (yaw) 
----------------------------------------------------- 
step 100, time 0.050000, maxvel 30.000000, total vol 183256, vol(u>maxvel) 6.26389, cell count 282363
bounding box (containing cells with vel>maxvel): xmin -12.2753 -1.7073 -0.503466, xmax 0.648231 1.70785 3.95209m 
bounding box of vehicle: xmin -12.2 -1.30049 -9.60874e-18, xmax 1.02694e-17 1.30049 3.60076m 
gts area: 163.392 
yplus max: 181.061, yplus min: 0.0304706 
position of yplus max: -12.042 1.28668 1.93393 
yplus prom: 8.56218 
forces: 2768.275159 -0.004268 -894.554864 
Drag coefficient: 0.772133 
torque (ref. CG): 0.005976 (roll) -1581.199449 (pitch) 0.026037 (yaw) 
----------------------------------------------------- 
step 101, time 0.050500, maxvel 30.000000, total vol 183256, vol(u>maxvel) 6.24771, cell count 280992
bounding box (containing cells with vel>maxvel): xmin -12.2753 -1.7073 -0.503466, xmax 0.648231 1.70785 3.95209m 
bounding box of vehicle: xmin -12.2 -1.30049 -9.60874e-18, xmax 1.02694e-17 1.30049 3.60076m 
gts area: 163.392 
yplus max: 181.057, yplus min: 0.030292 
position of yplus max: -12.042 1.28668 1.93393 
yplus prom: 8.56021 
forces: 2763.281270 -0.008982 -894.155459 
Drag coefficient: 0.770741 
torque (ref. CG): 0.012575 (roll) -1585.754520 (pitch) 0.054792 (yaw) 
----------------------------------------------------- 
step 102, time 0.051000, maxvel 30.000000, total vol 183256, vol(u>maxvel) 6.21255, cell count 279581
bounding box (containing cells with vel>maxvel): xmin -12.2753 -1.7073 -0.503466, xmax 0.648231 1.70785 3.95209m 
bounding box of vehicle: xmin -12.2 -1.30049 -9.60874e-18, xmax 1.02694e-17 1.30049 3.60076m 
gts area: 163.392 
yplus max: 181.053, yplus min: 0.0301728 
position of yplus max: -12.042 1.28668 1.93393 
yplus prom: 8.55823 
forces: 2758.285901 -0.018851 -893.785129 
Drag coefficient: 0.769347 
torque (ref. CG): 0.026392 (roll) -1590.489025 (pitch) 0.114994 (yaw) 
----------------------------------------------------- 
step 103, time 0.051500, maxvel 30.000000, total vol 183256, vol(u>maxvel) 6.18928, cell count 278079
bounding box (containing cells with vel>maxvel): xmin -12.2753 -1.7073 -0.503466, xmax 0.648231 1.70785 3.95209m 
bounding box of vehicle: xmin -12.2 -1.30049 -9.60874e-18, xmax 1.02694e-17 1.30049 3.60076m 
gts area: 163.392 
yplus max: 181.049, yplus min: 0.030122 
position of yplus max: -12.042 1.28668 1.93393 
yplus prom: 8.55625 
forces: 2753.277942 -0.017737 -893.396033 
Drag coefficient: 0.767950 
torque (ref. CG): 0.024831 (roll) -1595.126681 (pitch) 0.108194 (yaw) 
----------------------------------------------------- 
step 104, time 0.052000, maxvel 30.000000, total vol 183256, vol(u>maxvel) 6.17781, cell count 276738
bounding box (containing cells with vel>maxvel): xmin -12.2753 -1.7073 -0.503466, xmax 0.648231 1.70785 3.95209m 
bounding box of vehicle: xmin -12.2 -1.30049 -9.60874e-18, xmax 1.02694e-17 1.30049 3.60076m 
gts area: 163.392 
yplus max: 181.044, yplus min: 0.0301363 
position of yplus max: -12.042 1.28668 1.93393 
yplus prom: 8.55425 
forces: 2748.284717 -0.013133 -893.039102 
Drag coefficient: 0.766558 
torque (ref. CG): 0.018387 (roll) -1599.939918 (pitch) 0.080114 (yaw) 
----------------------------------------------------- 
step 105, time 0.052500, maxvel 30.000000, total vol 183256, vol(u>maxvel) 6.16388, cell count 275368
bounding box (containing cells with vel>maxvel): xmin -12.2753 -1.7073 -0.503466, xmax 0.648231 1.70785 3.95209m 
bounding box of vehicle: xmin -12.2 -1.30049 -9.60874e-18, xmax 1.02694e-17 1.30049 3.60076m 
gts area: 163.392 
yplus max: 181.04, yplus min: 0.0302148 
position of yplus max: -12.042 1.28668 1.93393 
yplus prom: 8.55225 
forces: 2743.342719 -0.021602 -892.672153 
Drag coefficient: 0.765179 
torque (ref. CG): 0.030243 (roll) -1604.620324 (pitch) 0.131772 (yaw) 
----------------------------------------------------- 
step 106, time 0.053000, maxvel 30.000000, total vol 183256, vol(u>maxvel) 6.15563, cell count 273831
bounding box (containing cells with vel>maxvel): xmin -12.2753 -1.7073 -0.503466, xmax 0.721328 1.70785 3.95209m 
bounding box of vehicle: xmin -12.2 -1.30049 -9.60874e-18, xmax 1.02694e-17 1.30049 3.60076m 
gts area: 163.392 
yplus max: 181.036, yplus min: 0.0303619 
position of yplus max: -12.042 1.28668 1.93393 
yplus prom: 8.55025 
forces: 2738.440588 -0.025614 -892.266905 
Drag coefficient: 0.763812 
torque (ref. CG): 0.035860 (roll) -1609.011299 (pitch) 0.156247 (yaw) 
----------------------------------------------------- 
step 107, time 0.053500, maxvel 30.000000, total vol 183256, vol(u>maxvel) 6.14183, cell count 272152
bounding box (containing cells with vel>maxvel): xmin -12.2753 -1.7073 -0.503466, xmax 0.721903 1.70785 3.95208m 
bounding box of vehicle: xmin -12.2 -1.30049 -9.60874e-18, xmax 1.02694e-17 1.30049 3.60076m 
gts area: 163.392 
yplus max: 181.032, yplus min: 0.0305707 
position of yplus max: -12.042 1.28668 1.93393 
yplus prom: 8.54824 
forces: 2733.555509 -0.020185 -891.884442 
Drag coefficient: 0.762449 
torque (ref. CG): 0.028259 (roll) -1613.517386 (pitch) 0.123130 (yaw) 
----------------------------------------------------- 
step 108, time 0.054000, maxvel 30.000000, total vol 183256, vol(u>maxvel) 6.11318, cell count 270742
bounding box (containing cells with vel>maxvel): xmin -12.2753 -1.7073 -0.503466, xmax 0.721903 1.70775 3.95208m 
bounding box of vehicle: xmin -12.2 -1.30049 -9.60874e-18, xmax 1.02694e-17 1.30049 3.60076m 
gts area: 163.392 
yplus max: 181.028, yplus min: 0.0308353 
position of yplus max: -12.042 1.28668 1.93393 
yplus prom: 8.54623 
forces: 2728.697049 -0.023218 -891.523238 
Drag coefficient: 0.761094 
torque (ref. CG): 0.032505 (roll) -1618.115884 (pitch) 0.141629 (yaw) 
----------------------------------------------------- 
step 109, time 0.054500, maxvel 30.000000, total vol 183256, vol(u>maxvel) 6.08614, cell count 269139
bounding box (containing cells with vel>maxvel): xmin -12.2753 -1.7073 -0.503466, xmax 0.72252 1.70775 3.88621m 
bounding box of vehicle: xmin -12.2 -1.30049 -9.60874e-18, xmax 1.02694e-17 1.30049 3.60076m 
gts area: 163.392 
yplus max: 181.024, yplus min: 0.0311588 
position of yplus max: -12.042 1.28668 1.93393 
yplus prom: 8.54423 
forces: 2723.874299 -0.020664 -891.104747 
Drag coefficient: 0.759749 
torque (ref. CG): 0.028929 (roll) -1622.314939 (pitch) 0.126048 (yaw) 
----------------------------------------------------- 
step 110, time 0.055000, maxvel 30.000000, total vol 183256, vol(u>maxvel) 6.07249, cell count 267699
bounding box (containing cells with vel>maxvel): xmin -12.2753 -1.7073 -0.503466, xmax 0.72252 1.70775 3.88621m 
bounding box of vehicle: xmin -12.2 -1.30049 -9.60874e-18, xmax 1.02694e-17 1.30049 3.60076m 
gts area: 163.392 
yplus max: 181.02, yplus min: 0.031528 
position of yplus max: -12.042 1.28668 1.93393 
yplus prom: 8.54223 
forces: 2719.074818 -0.029200 -890.713717 
Drag coefficient: 0.758410 
torque (ref. CG): 0.040881 (roll) -1626.648927 (pitch) 0.178122 (yaw) 
----------------------------------------------------- 
step 111, time 0.055500, maxvel 30.000000, total vol 183256, vol(u>maxvel) 6.05363, cell count 266138
bounding box (containing cells with vel>maxvel): xmin -12.2753 -1.7073 -0.503466, xmax 0.723622 1.70775 3.88621m 
bounding box of vehicle: xmin -12.2 -1.30049 -9.60874e-18, xmax 1.02694e-17 1.30049 3.60076m 
gts area: 163.392 
yplus max: 181.016, yplus min: 0.0319437 
position of yplus max: -12.042 1.28668 1.93393 
yplus prom: 8.54023 
forces: 2714.295988 -0.027491 -890.331930 
Drag coefficient: 0.757077 
torque (ref. CG): 0.038487 (roll) -1631.010390 (pitch) 0.167695 (yaw) 
----------------------------------------------------- 
step 112, time 0.056000, maxvel 30.000000, total vol 183256, vol(u>maxvel) 6.04288, cell count 264436
bounding box (containing cells with vel>maxvel): xmin -12.2753 -1.7073 -0.503466, xmax 0.723622 1.70775 3.88621m 
bounding box of vehicle: xmin -12.2 -1.30049 -9.60874e-18, xmax 1.02694e-17 1.30049 3.60076m 
gts area: 163.392 
yplus max: 181.013, yplus min: 0.0323993 
position of yplus max: -12.042 1.28668 1.93393 
yplus prom: 8.53824 
forces: 2709.531506 -0.027589 -889.921128 
Drag coefficient: 0.755749 
torque (ref. CG): 0.038625 (roll) -1635.174772 (pitch) 0.168296 (yaw) 
----------------------------------------------------- 
step 113, time 0.056500, maxvel 30.000000, total vol 183256, vol(u>maxvel) 6.01977, cell count 262750
bounding box (containing cells with vel>maxvel): xmin -12.2753 -1.7073 -0.503466, xmax 0.723779 1.70775 3.88621m 
bounding box of vehicle: xmin -12.2 -1.30049 -9.60874e-18, xmax 1.02694e-17 1.30049 3.60076m 
gts area: 163.392 
yplus max: 181.009, yplus min: 0.0328859 
position of yplus max: -12.042 1.28668 1.93393 
yplus prom: 8.53624 
forces: 2704.765990 -0.033144 -889.501654 
Drag coefficient: 0.754419 
torque (ref. CG): 0.046402 (roll) -1639.287702 (pitch) 0.202181 (yaw) 
----------------------------------------------------- 
step 114, time 0.057000, maxvel 30.000000, total vol 183256, vol(u>maxvel) 6.00633, cell count 261101
bounding box (containing cells with vel>maxvel): xmin -12.2753 -1.7073 -0.503466, xmax 0.723779 1.70775 3.88621m 
bounding box of vehicle: xmin -12.2 -1.30049 -9.60874e-18, xmax 1.02694e-17 1.30049 3.60076m 
gts area: 163.392 
yplus max: 181.005, yplus min: 0.0334005 
position of yplus max: -12.042 1.28668 1.93393 
yplus prom: 8.53425 
forces: 2699.995893 -0.030555 -889.110846 
Drag coefficient: 0.753089 
torque (ref. CG): 0.042777 (roll) -1643.581909 (pitch) 0.186386 (yaw) 
----------------------------------------------------- 
step 115, time 0.057500, maxvel 30.000000, total vol 183256, vol(u>maxvel) 5.98705, cell count 259541
bounding box (containing cells with vel>maxvel): xmin -12.2753 -1.7073 -0.503466, xmax 0.723779 1.70775 3.88621m 
bounding box of vehicle: xmin -12.2 -1.30049 -9.60874e-18, xmax 1.02694e-17 1.30049 3.60076m 
gts area: 163.392 
yplus max: 181.002, yplus min: 0.0339399 
position of yplus max: -12.042 1.28668 1.93393 
yplus prom: 8.53226 
forces: 2695.227015 -0.038303 -888.697943 
Drag coefficient: 0.751759 
torque (ref. CG): 0.053625 (roll) -1647.739631 (pitch) 0.233651 (yaw) 
----------------------------------------------------- 
step 116, time 0.058000, maxvel 30.000000, total vol 183256, vol(u>maxvel) 5.96065, cell count 258028
bounding box (containing cells with vel>maxvel): xmin -12.2753 -1.70715 -0.503466, xmax 0.723779 1.70775 3.88621m 
bounding box of vehicle: xmin -12.2 -1.30049 -9.60874e-18, xmax 1.02694e-17 1.30049 3.60076m 
gts area: 163.392 
yplus max: 180.998, yplus min: 0.0345012 
position of yplus max: -12.042 1.28668 1.93393 
yplus prom: 8.53027 
forces: 2690.467951 -0.033510 -888.277229 
Drag coefficient: 0.750431 
torque (ref. CG): 0.046914 (roll) -1651.835966 (pitch) 0.204413 (yaw) 
----------------------------------------------------- 
step 117, time 0.058500, maxvel 30.000000, total vol 183256, vol(u>maxvel) 5.95135, cell count 256683
bounding box (containing cells with vel>maxvel): xmin -12.2753 -1.70715 -0.503466, xmax 0.723779 1.70775 3.88621m 
bounding box of vehicle: xmin -12.2 -1.30049 -9.60874e-18, xmax 1.02694e-17 1.30049 3.60076m 
gts area: 163.392 
yplus max: 180.994, yplus min: 0.0350783 
position of yplus max: -12.042 1.28668 1.93393 
yplus prom: 8.52828 
forces: 2685.723465 -0.034671 -887.897263 
Drag coefficient: 0.749108 
torque (ref. CG): 0.048540 (roll) -1656.160453 (pitch) 0.211494 (yaw) 
----------------------------------------------------- 
step 118, time 0.059000, maxvel 30.000000, total vol 183256, vol(u>maxvel) 5.92247, cell count 255306
bounding box (containing cells with vel>maxvel): xmin -12.2753 -1.70715 -0.503466, xmax 0.723779 1.70775 3.88621m 
bounding box of vehicle: xmin -12.2 -1.30049 -9.60874e-18, xmax 1.02694e-17 1.30049 3.60076m 
gts area: 163.392 
yplus max: 180.991, yplus min: 0.035672 
position of yplus max: -12.042 1.28668 1.93393 
yplus prom: 8.5263 
forces: 2681.006574 -0.035900 -887.464226 
Drag coefficient: 0.747792 
torque (ref. CG): 0.050260 (roll) -1660.122577 (pitch) 0.218990 (yaw) 
----------------------------------------------------- 
step 119, time 0.059500, maxvel 30.000000, total vol 183256, vol(u>maxvel) 5.89339, cell count 253848
bounding box (containing cells with vel>maxvel): xmin -12.2753 -1.70715 -0.503466, xmax 0.723779 1.70775 3.88621m 
bounding box of vehicle: xmin -12.2 -1.30049 -9.60874e-18, xmax 1.02694e-17 1.30049 3.60076m 
gts area: 163.392 
yplus max: 180.987, yplus min: 0.0362762 
position of yplus max: -12.042 1.28668 1.93393 
yplus prom: 8.52431 
forces: 2676.306593 -0.036878 -887.050907 
Drag coefficient: 0.746481 
torque (ref. CG): 0.051629 (roll) -1664.181301 (pitch) 0.224953 (yaw) 
----------------------------------------------------- 
step 120, time 0.060000, maxvel 30.000000, total vol 183256, vol(u>maxvel) 5.87682, cell count 252464
bounding box (containing cells with vel>maxvel): xmin -12.2753 -1.70715 -0.503466, xmax 0.723779 1.70775 3.88621m 
bounding box of vehicle: xmin -12.2 -1.30049 -9.60874e-18, xmax 1.02694e-17 1.30049 3.60076m 
gts area: 163.392 
yplus max: 180.984, yplus min: 0.0368896 
position of yplus max: -12.042 1.28668 1.93393 
yplus prom: 8.52233 
forces: 2671.615915 -0.041772 -886.632733 
Drag coefficient: 0.745173 
torque (ref. CG): 0.058481 (roll) -1668.197391 (pitch) 0.254811 (yaw) 
----------------------------------------------------- 
step 121, time 0.060500, maxvel 30.000000, total vol 183256, vol(u>maxvel) 5.85135, cell count 251176
bounding box (containing cells with vel>maxvel): xmin -12.2753 -1.70715 -0.503466, xmax 0.723779 1.70775 3.88621m 
bounding box of vehicle: xmin -12.2 -1.30049 -9.60874e-18, xmax 1.02694e-17 1.30049 3.60076m 
gts area: 163.392 
yplus max: 180.98, yplus min: 0.0375094 
position of yplus max: -12.042 1.28668 1.93393 
yplus prom: 8.52035 
forces: 2666.931723 -0.039616 -886.207710 
Drag coefficient: 0.743866 
torque (ref. CG): 0.055463 (roll) -1672.162619 (pitch) 0.241660 (yaw) 
----------------------------------------------------- 
step 122, time 0.061000, maxvel 30.000000, total vol 183256, vol(u>maxvel) 5.83406, cell count 249933
bounding box (containing cells with vel>maxvel): xmin -12.2753 -1.70715 -0.503466, xmax 0.723779 1.70775 3.88621m 
bounding box of vehicle: xmin -12.2 -1.30049 -9.60874e-18, xmax 1.02694e-17 1.30049 3.60076m 
gts area: 163.392 
yplus max: 180.977, yplus min: 0.0381349 
position of yplus max: -12.042 1.28668 1.93393 
yplus prom: 8.51837 
forces: 2662.260928 -0.038410 -885.786581 
Drag coefficient: 0.742564 
torque (ref. CG): 0.053775 (roll) -1676.132844 (pitch) 0.234304 (yaw) 
----------------------------------------------------- 
step 123, time 0.061500, maxvel 30.000000, total vol 183256, vol(u>maxvel) 5.82478, cell count 248586
bounding box (containing cells with vel>maxvel): xmin -12.2753 -1.70715 -0.503466, xmax 0.723779 1.70775 3.88621m 
bounding box of vehicle: xmin -12.2 -1.30049 -9.60874e-18, xmax 1.02694e-17 1.30049 3.60076m 
gts area: 163.392 
yplus max: 180.974, yplus min: 0.0387631 
position of yplus max: -12.042 1.28668 1.93393 
yplus prom: 8.5164 
forces: 2657.599818 -0.037409 -885.370512 
Drag coefficient: 0.741264 
torque (ref. CG): 0.052372 (roll) -1680.120375 (pitch) 0.228193 (yaw) 
----------------------------------------------------- 
step 124, time 0.062000, maxvel 30.000000, total vol 183256, vol(u>maxvel) 5.8099, cell count 247240
bounding box (containing cells with vel>maxvel): xmin -12.2753 -1.70715 -0.503466, xmax 0.795174 1.70775 3.88621m 
bounding box of vehicle: xmin -12.2 -1.30049 -9.60874e-18, xmax 1.02694e-17 1.30049 3.60076m 
gts area: 163.392 
yplus max: 180.97, yplus min: 0.0393944 
[...]
----------------------------------------------------- 
step 1970, time 0.985000, maxvel 30.000000, total vol 183256, vol(u>maxvel) 1.88171, cell count 120270
bounding box (containing cells with vel>maxvel): xmin -12.2625 -1.70657 -0.503466, xmax -10.7514 1.70716 3.2777m 
bounding box of vehicle: xmin -12.2 -1.30049 -9.60874e-18, xmax 1.02694e-17 1.30049 3.60076m 
gts area: 163.392 
yplus max: 180.368, yplus min: 0.0791949 
position of yplus max: -12.042 1.28668 1.93393 
yplus prom: 7.57904 
forces: 1207.478640 -0.002115 -491.365593 
Drag coefficient: 0.336793 
torque (ref. CG): 0.002962 (roll) -1306.860019 (pitch) 0.012904 (yaw) 
----------------------------------------------------- 
step 1971, time 0.985500, maxvel 30.000000, total vol 183256, vol(u>maxvel) 1.88171, cell count 120269
bounding box (containing cells with vel>maxvel): xmin -12.2625 -1.70657 -0.503466, xmax -10.7514 1.70716 3.2777m 
bounding box of vehicle: xmin -12.2 -1.30049 -9.60874e-18, xmax 1.02694e-17 1.30049 3.60076m 
gts area: 163.392 
yplus max: 180.368, yplus min: 0.0791553 
position of yplus max: -12.042 1.28668 1.93393 
yplus prom: 7.57905 
forces: 1207.421575 -0.007762 -491.362469 
Drag coefficient: 0.336777 
torque (ref. CG): 0.010867 (roll) -1306.920857 (pitch) 0.047349 (yaw) 
----------------------------------------------------- 
step 1972, time 0.986000, maxvel 30.000000, total vol 183256, vol(u>maxvel) 1.88171, cell count 120268
bounding box (containing cells with vel>maxvel): xmin -12.2625 -1.70657 -0.503466, xmax -10.7514 1.70716 3.2777m 
bounding box of vehicle: xmin -12.2 -1.30049 -9.60874e-18, xmax 1.02694e-17 1.30049 3.60076m 
gts area: 163.392 
yplus max: 180.368, yplus min: 0.0791151 
position of yplus max: -12.042 1.28668 1.93393 
yplus prom: 7.57906 
forces: 1207.376747 -0.007398 -491.353617 
Drag coefficient: 0.336764 
torque (ref. CG): 0.010357 (roll) -1306.929617 (pitch) 0.045125 (yaw) 
----------------------------------------------------- 
step 1973, time 0.986500, maxvel 30.000000, total vol 183256, vol(u>maxvel) 1.88171, cell count 120268
bounding box (containing cells with vel>maxvel): xmin -12.2625 -1.70657 -0.503466, xmax -10.7514 1.70716 3.2777m 
bounding box of vehicle: xmin -12.2 -1.30049 -9.60874e-18, xmax 1.02694e-17 1.30049 3.60076m 
gts area: 163.392 
yplus max: 180.368, yplus min: 0.0790748 
position of yplus max: -12.042 1.28668 1.93393 
yplus prom: 7.57907 
forces: 1207.336580 -0.000030 -491.293492 
Drag coefficient: 0.336753 
torque (ref. CG): 0.000042 (roll) -1306.619088 (pitch) 0.000183 (yaw) 
----------------------------------------------------- 
step 1974, time 0.987000, maxvel 30.000000, total vol 183256, vol(u>maxvel) 1.88171, cell count 120269
bounding box (containing cells with vel>maxvel): xmin -12.2625 -1.70657 -0.503466, xmax -10.7514 1.70716 3.2777m 
bounding box of vehicle: xmin -12.2 -1.30049 -9.60874e-18, xmax 1.02694e-17 1.30049 3.60076m 
gts area: 163.392 
yplus max: 180.368, yplus min: 0.0790345 
position of yplus max: -12.042 1.28668 1.93393 
yplus prom: 7.57908 
forces: 1207.274688 -0.011138 -491.312296 
Drag coefficient: 0.336736 
torque (ref. CG): 0.015593 (roll) -1306.820445 (pitch) 0.067940 (yaw) 
----------------------------------------------------- 
step 1975, time 0.987500, maxvel 30.000000, total vol 183256, vol(u>maxvel) 1.88171, cell count 120269
bounding box (containing cells with vel>maxvel): xmin -12.2625 -1.70657 -0.503466, xmax -10.7514 1.70716 3.2777m 
bounding box of vehicle: xmin -12.2 -1.30049 -9.60874e-18, xmax 1.02694e-17 1.30049 3.60076m 
gts area: 163.392 
yplus max: 180.368, yplus min: 0.0789931 
position of yplus max: -12.042 1.28668 1.93393 
yplus prom: 7.57909 
forces: 1207.237645 -0.005070 -491.290460 
Drag coefficient: 0.336725 
torque (ref. CG): 0.007098 (roll) -1306.739100 (pitch) 0.030926 (yaw) 
----------------------------------------------------- 
step 1976, time 0.988000, maxvel 30.000000, total vol 183256, vol(u>maxvel) 1.88171, cell count 120269
bounding box (containing cells with vel>maxvel): xmin -12.2625 -1.70657 -0.503466, xmax -10.7514 1.70716 3.2777m 
bounding box of vehicle: xmin -12.2 -1.30049 -9.60874e-18, xmax 1.02694e-17 1.30049 3.60076m 
gts area: 163.392 
yplus max: 180.368, yplus min: 0.0789516 
position of yplus max: -12.042 1.28668 1.93393 
yplus prom: 7.5791 
forces: 1207.185073 -0.008425 -491.268170 
Drag coefficient: 0.336711 
torque (ref. CG): 0.011795 (roll) -1306.676736 (pitch) 0.051394 (yaw) 
----------------------------------------------------- 
step 1977, time 0.988500, maxvel 30.000000, total vol 183256, vol(u>maxvel) 1.88171, cell count 120269
bounding box (containing cells with vel>maxvel): xmin -12.2625 -1.70657 -0.503466, xmax -10.7514 1.70716 3.2777m 
bounding box of vehicle: xmin -12.2 -1.30049 -9.60874e-18, xmax 1.02694e-17 1.30049 3.60076m 
gts area: 163.392 
yplus max: 180.368, yplus min: 0.0789098 
position of yplus max: -12.042 1.28668 1.93393 
yplus prom: 7.57911 
forces: 1207.143064 -0.005949 -491.244284 
Drag coefficient: 0.336699 
torque (ref. CG): 0.008328 (roll) -1306.589843 (pitch) 0.036287 (yaw) 
----------------------------------------------------- 
step 1978, time 0.989000, maxvel 30.000000, total vol 183256, vol(u>maxvel) 1.88176, cell count 120270
bounding box (containing cells with vel>maxvel): xmin -12.2625 -1.70657 -0.503466, xmax -10.7514 1.70716 3.2777m 
bounding box of vehicle: xmin -12.2 -1.30049 -9.60874e-18, xmax 1.02694e-17 1.30049 3.60076m 
gts area: 163.392 
yplus max: 180.369, yplus min: 0.0788676 
position of yplus max: -12.042 1.28668 1.93393 
yplus prom: 7.57912 
forces: 1207.093403 -0.009139 -491.246393 
Drag coefficient: 0.336685 
torque (ref. CG): 0.012794 (roll) -1306.672234 (pitch) 0.055747 (yaw) 
----------------------------------------------------- 
step 1979, time 0.989500, maxvel 30.000000, total vol 183256, vol(u>maxvel) 1.88177, cell count 120271
bounding box (containing cells with vel>maxvel): xmin -12.2625 -1.70657 -0.503466, xmax -10.7514 1.70716 3.2777m 
bounding box of vehicle: xmin -12.2 -1.30049 -9.60874e-18, xmax 1.02694e-17 1.30049 3.60076m 
gts area: 163.392 
yplus max: 180.369, yplus min: 0.0788249 
position of yplus max: -12.042 1.28668 1.93393 
yplus prom: 7.57912 
forces: 1207.054454 -0.003493 -491.209302 
Drag coefficient: 0.336674 
torque (ref. CG): 0.004890 (roll) -1306.500509 (pitch) 0.021308 (yaw) 
----------------------------------------------------- 
step 1980, time 0.990000, maxvel 30.000000, total vol 183256, vol(u>maxvel) 1.88177, cell count 120270
bounding box (containing cells with vel>maxvel): xmin -12.2625 -1.70657 -0.503466, xmax -10.7514 1.70716 3.2777m 
bounding box of vehicle: xmin -12.2 -1.30049 -9.60874e-18, xmax 1.02694e-17 1.30049 3.60076m 
gts area: 163.392 
yplus max: 180.369, yplus min: 0.0787818 
position of yplus max: -12.042 1.28668 1.93393 
yplus prom: 7.57913 
forces: 1207.000378 -0.013127 -491.234794 
Drag coefficient: 0.336659 
torque (ref. CG): 0.018378 (roll) -1306.731716 (pitch) 0.080078 (yaw) 
----------------------------------------------------- 
step 1981, time 0.990500, maxvel 30.000000, total vol 183256, vol(u>maxvel) 1.88177, cell count 120270
bounding box (containing cells with vel>maxvel): xmin -12.2625 -1.70657 -0.503466, xmax -10.7514 1.70716 3.2777m 
bounding box of vehicle: xmin -12.2 -1.30049 -9.60874e-18, xmax 1.02694e-17 1.30049 3.60076m 
gts area: 163.392 
yplus max: 180.369, yplus min: 0.0787386 
position of yplus max: -12.042 1.28668 1.93393 
yplus prom: 7.57914 
forces: 1206.965449 -0.003311 -491.169305 
Drag coefficient: 0.336649 
torque (ref. CG): 0.004636 (roll) -1306.381131 (pitch) 0.020200 (yaw) 
----------------------------------------------------- 
step 1982, time 0.991000, maxvel 30.000000, total vol 183256, vol(u>maxvel) 1.88177, cell count 120271
bounding box (containing cells with vel>maxvel): xmin -12.2625 -1.70657 -0.503466, xmax -10.7514 1.70716 3.2777m 
bounding box of vehicle: xmin -12.2 -1.30049 -9.60874e-18, xmax 1.02694e-17 1.30049 3.60076m 
gts area: 163.392 
yplus max: 180.369, yplus min: 0.0786952 
position of yplus max: -12.042 1.28668 1.93393 
yplus prom: 7.57915 
forces: 1206.908062 -0.013073 -491.190516 
Drag coefficient: 0.336633 
torque (ref. CG): 0.018302 (roll) -1306.590858 (pitch) 0.079745 (yaw) 
----------------------------------------------------- 
step 1983, time 0.991500, maxvel 30.000000, total vol 183256, vol(u>maxvel) 1.88177, cell count 120271
bounding box (containing cells with vel>maxvel): xmin -12.2625 -1.70657 -0.503466, xmax -10.7514 1.70716 3.2777m 
bounding box of vehicle: xmin -12.2 -1.30049 -9.60874e-18, xmax 1.02694e-17 1.30049 3.60076m 
gts area: 163.392 
yplus max: 180.369, yplus min: 0.0786507 
position of yplus max: -12.042 1.28668 1.93393 
yplus prom: 7.57916 
forces: 1206.876115 -0.004307 -491.160538 
Drag coefficient: 0.336625 
torque (ref. CG): 0.006030 (roll) -1306.452722 (pitch) 0.026273 (yaw) 
----------------------------------------------------- 
step 1984, time 0.992000, maxvel 30.000000, total vol 183256, vol(u>maxvel) 1.88176, cell count 120269
bounding box (containing cells with vel>maxvel): xmin -12.2625 -1.70657 -0.503466, xmax -10.7514 1.70716 3.2777m 
bounding box of vehicle: xmin -12.2 -1.30049 -9.60874e-18, xmax 1.02694e-17 1.30049 3.60076m 
gts area: 163.392 
yplus max: 180.369, yplus min: 0.0786063 
position of yplus max: -12.042 1.28668 1.93393 
yplus prom: 7.57917 
forces: 1206.819110 -0.014856 -491.183710 
Drag coefficient: 0.336609 
torque (ref. CG): 0.020798 (roll) -1306.673880 (pitch) 0.090622 (yaw) 
----------------------------------------------------- 
step 1985, time 0.992500, maxvel 30.000000, total vol 183256, vol(u>maxvel) 1.88177, cell count 120270
bounding box (containing cells with vel>maxvel): xmin -12.2625 -1.70657 -0.503466, xmax -10.7514 1.70716 3.2777m 
bounding box of vehicle: xmin -12.2 -1.30049 -9.60874e-18, xmax 1.02694e-17 1.30049 3.60076m 
gts area: 163.392 
yplus max: 180.369, yplus min: 0.0785612 
position of yplus max: -12.042 1.28668 1.93393 
yplus prom: 7.57918 
forces: 1206.793887 -0.002300 -491.114244 
Drag coefficient: 0.336602 
torque (ref. CG): 0.003219 (roll) -1306.285445 (pitch) 0.014027 (yaw) 
----------------------------------------------------- 
step 1986, time 0.993000, maxvel 30.000000, total vol 183256, vol(u>maxvel) 1.88177, cell count 120270
bounding box (containing cells with vel>maxvel): xmin -12.2625 -1.70657 -0.503466, xmax -10.7514 1.70716 3.2777m 
bounding box of vehicle: xmin -12.2 -1.30049 -9.60874e-18, xmax 1.02694e-17 1.30049 3.60076m 
gts area: 163.392 
yplus max: 180.369, yplus min: 0.078517 
position of yplus max: -12.042 1.28668 1.93393 
yplus prom: 7.57919 
forces: 1206.732940 -0.015008 -491.140847 
Drag coefficient: 0.336585 
torque (ref. CG): 0.021011 (roll) -1306.533054 (pitch) 0.091547 (yaw) 
----------------------------------------------------- 
step 1987, time 0.993500, maxvel 30.000000, total vol 183256, vol(u>maxvel) 1.88206, cell count 120271
bounding box (containing cells with vel>maxvel): xmin -12.2625 -1.70657 -0.503466, xmax -10.7514 1.70716 3.2777m 
bounding box of vehicle: xmin -12.2 -1.30049 -9.60874e-18, xmax 1.02694e-17 1.30049 3.60076m 
gts area: 163.392 
yplus max: 180.369, yplus min: 0.0784705 
position of yplus max: -12.042 1.28668 1.93393 
yplus prom: 7.5792 
forces: 1206.696726 -0.009950 -491.127748 
Drag coefficient: 0.336575 
torque (ref. CG): 0.013930 (roll) -1306.503845 (pitch) 0.060696 (yaw) 
----------------------------------------------------- 
step 1988, time 0.994000, maxvel 30.000000, total vol 183256, vol(u>maxvel) 1.88207, cell count 120273
bounding box (containing cells with vel>maxvel): xmin -12.2625 -1.70657 -0.503466, xmax -10.7514 1.70716 3.2777m 
bounding box of vehicle: xmin -12.2 -1.30049 -9.60874e-18, xmax 1.02694e-17 1.30049 3.60076m 
gts area: 163.392 
yplus max: 180.369, yplus min: 0.0784247 
position of yplus max: -12.042 1.28668 1.93393 
yplus prom: 7.57921 
forces: 1206.654423 -0.011446 -491.118265 
Drag coefficient: 0.336563 
torque (ref. CG): 0.016024 (roll) -1306.505225 (pitch) 0.069820 (yaw) 
----------------------------------------------------- 
step 1989, time 0.994500, maxvel 30.000000, total vol 183256, vol(u>maxvel) 1.88207, cell count 120274
bounding box (containing cells with vel>maxvel): xmin -12.2625 -1.70657 -0.503466, xmax -10.7514 1.70716 3.2777m 
bounding box of vehicle: xmin -12.2 -1.30049 -9.60874e-18, xmax 1.02694e-17 1.30049 3.60076m 
gts area: 163.392 
yplus max: 180.369, yplus min: 0.0783783 
position of yplus max: -12.042 1.28668 1.93393 
yplus prom: 7.57922 
forces: 1206.613246 -0.011663 -491.106938 
Drag coefficient: 0.336551 
torque (ref. CG): 0.016329 (roll) -1306.493775 (pitch) 0.071146 (yaw) 
----------------------------------------------------- 
step 1990, time 0.995000, maxvel 30.000000, total vol 183256, vol(u>maxvel) 1.88208, cell count 120275
bounding box (containing cells with vel>maxvel): xmin -12.2625 -1.70657 -0.503466, xmax -10.7514 1.70716 3.2777m 
bounding box of vehicle: xmin -12.2 -1.30049 -9.60874e-18, xmax 1.02694e-17 1.30049 3.60076m 
gts area: 163.392 
yplus max: 180.369, yplus min: 0.0783319 
position of yplus max: -12.042 1.28668 1.93393 
yplus prom: 7.57923 
forces: 1206.574991 -0.007762 -491.076519 
Drag coefficient: 0.336541 
torque (ref. CG): 0.010867 (roll) -1306.361776 (pitch) 0.047350 (yaw) 
----------------------------------------------------- 
step 1991, time 0.995500, maxvel 30.000000, total vol 183256, vol(u>maxvel) 1.88209, cell count 120276
bounding box (containing cells with vel>maxvel): xmin -12.2625 -1.70657 -0.503466, xmax -10.7514 1.70716 3.2777m 
bounding box of vehicle: xmin -12.2 -1.30049 -9.60874e-18, xmax 1.02694e-17 1.30049 3.60076m 
gts area: 163.392 
yplus max: 180.369, yplus min: 0.0782845 
position of yplus max: -12.042 1.28668 1.93393 
yplus prom: 7.57924 
forces: 1206.524160 -0.014198 -491.098412 
Drag coefficient: 0.336526 
torque (ref. CG): 0.019877 (roll) -1306.566489 (pitch) 0.086607 (yaw) 
----------------------------------------------------- 
step 1992, time 0.996000, maxvel 30.000000, total vol 183256, vol(u>maxvel) 1.88209, cell count 120276
bounding box (containing cells with vel>maxvel): xmin -12.2625 -1.70657 -0.503466, xmax -10.7514 1.70716 3.2777m 
bounding box of vehicle: xmin -12.2 -1.30049 -9.60874e-18, xmax 1.02694e-17 1.30049 3.60076m 
gts area: 163.392 
yplus max: 180.369, yplus min: 0.0782373 
position of yplus max: -12.042 1.28668 1.93393 
yplus prom: 7.57925 
forces: 1206.492325 -0.008631 -491.069156 
Drag coefficient: 0.336518 
torque (ref. CG): 0.012084 (roll) -1306.432595 (pitch) 0.052651 (yaw) 
----------------------------------------------------- 
step 1993, time 0.996500, maxvel 30.000000, total vol 183256, vol(u>maxvel) 1.88209, cell count 120276
bounding box (containing cells with vel>maxvel): xmin -12.2625 -1.70657 -0.503466, xmax -10.7514 1.70716 3.2777m 
bounding box of vehicle: xmin -12.2 -1.30049 -9.60874e-18, xmax 1.02694e-17 1.30049 3.60076m 
gts area: 163.392 
yplus max: 180.369, yplus min: 0.0781889 
position of yplus max: -12.042 1.28668 1.93393 
yplus prom: 7.57927 
forces: 1206.444339 -0.014727 -491.085199 
Drag coefficient: 0.336504 
torque (ref. CG): 0.020618 (roll) -1306.597638 (pitch) 0.089834 (yaw) 
----------------------------------------------------- 
step 1994, time 0.997000, maxvel 30.000000, total vol 183256, vol(u>maxvel) 1.88209, cell count 120277
bounding box (containing cells with vel>maxvel): xmin -12.2625 -1.70657 -0.503466, xmax -10.7514 1.70716 3.2777m 
bounding box of vehicle: xmin -12.2 -1.30049 -9.60874e-18, xmax 1.02694e-17 1.30049 3.60076m 
gts area: 163.392 
yplus max: 180.369, yplus min: 0.0781408 
position of yplus max: -12.042 1.28668 1.93393 
yplus prom: 7.57928 
forces: 1206.415644 -0.006856 -491.040262 
Drag coefficient: 0.336496 
torque (ref. CG): 0.009598 (roll) -1306.363696 (pitch) 0.041819 (yaw) 
----------------------------------------------------- 
step 1995, time 0.997500, maxvel 30.000000, total vol 183256, vol(u>maxvel) 1.88209, cell count 120278
bounding box (containing cells with vel>maxvel): xmin -12.2625 -1.70657 -0.503466, xmax -10.7514 1.70716 3.2777m 
bounding box of vehicle: xmin -12.2 -1.30049 -9.60874e-18, xmax 1.02694e-17 1.30049 3.60076m 
gts area: 163.392 
yplus max: 180.369, yplus min: 0.0780923 
position of yplus max: -12.042 1.28668 1.93393 
yplus prom: 7.57929 
forces: 1206.357455 -0.017738 -491.071183 
Drag coefficient: 0.336480 
torque (ref. CG): 0.024834 (roll) -1306.633781 (pitch) 0.108204 (yaw) 
----------------------------------------------------- 
step 1996, time 0.998000, maxvel 30.000000, total vol 183256, vol(u>maxvel) 1.88209, cell count 120278
bounding box (containing cells with vel>maxvel): xmin -12.2625 -1.70657 -0.503466, xmax -10.7514 1.70716 3.2777m 
bounding box of vehicle: xmin -12.2 -1.30049 -9.60874e-18, xmax 1.02694e-17 1.30049 3.60076m 
gts area: 163.392 
yplus max: 180.369, yplus min: 0.078043 
position of yplus max: -12.042 1.28668 1.93393 
yplus prom: 7.5793 
forces: 1206.335769 -0.007885 -491.035181 
Drag coefficient: 0.336474 
torque (ref. CG): 0.011039 (roll) -1306.444529 (pitch) 0.048098 (yaw) 
----------------------------------------------------- 
step 1997, time 0.998500, maxvel 30.000000, total vol 183256, vol(u>maxvel) 1.88209, cell count 120278
bounding box (containing cells with vel>maxvel): xmin -12.2625 -1.70657 -0.503466, xmax -10.7514 1.70716 3.2777m 
bounding box of vehicle: xmin -12.2 -1.30049 -9.60874e-18, xmax 1.02694e-17 1.30049 3.60076m 
gts area: 163.392 
yplus max: 180.369, yplus min: 0.0779938 
position of yplus max: -12.042 1.28668 1.93393 
yplus prom: 7.57931 
forces: 1206.279422 -0.017360 -491.055450 
Drag coefficient: 0.336458 
torque (ref. CG): 0.024304 (roll) -1306.647055 (pitch) 0.105896 (yaw) 
----------------------------------------------------- 
step 1998, time 0.999000, maxvel 30.000000, total vol 183256, vol(u>maxvel) 1.88209, cell count 120279
bounding box (containing cells with vel>maxvel): xmin -12.2625 -1.70657 -0.503466, xmax -10.7514 1.70716 3.2777m 
bounding box of vehicle: xmin -12.2 -1.30049 -9.60874e-18, xmax 1.02694e-17 1.30049 3.60076m 
gts area: 163.392 
yplus max: 180.369, yplus min: 0.0779434 
position of yplus max: -12.042 1.28668 1.93393 
yplus prom: 7.57932 
forces: 1206.257020 -0.008794 -491.026318 
Drag coefficient: 0.336452 
torque (ref. CG): 0.012312 (roll) -1306.500713 (pitch) 0.053645 (yaw) 
----------------------------------------------------- 
step 1999, time 0.999500, maxvel 30.000000, total vol 183256, vol(u>maxvel) 1.88211, cell count 120281
bounding box (containing cells with vel>maxvel): xmin -12.2625 -1.70657 -0.503466, xmax -10.7514 1.70716 3.2777m 
bounding box of vehicle: xmin -12.2 -1.30049 -9.60874e-18, xmax 1.02694e-17 1.30049 3.60076m 
gts area: 163.392 
yplus max: 180.369, yplus min: 0.0778934 
position of yplus max: -12.042 1.28668 1.93393 
yplus prom: 7.57933 
forces: 1206.208702 -0.014001 -491.031523 
Drag coefficient: 0.336438 
torque (ref. CG): 0.019601 (roll) -1306.600106 (pitch) 0.085406 (yaw) 
----------------------------------------------------- 
step 2000, time 1.000000, maxvel 30.000000, total vol 183256, vol(u>maxvel) 1.88211, cell count 120281
bounding box (containing cells with vel>maxvel): xmin -12.2625 -1.70657 -0.503466, xmax -10.7514 1.70716 3.2777m 
bounding box of vehicle: xmin -12.2 -1.30049 -9.60874e-18, xmax 1.02694e-17 1.30049 3.60076m 
gts area: 163.392 
yplus max: 180.369, yplus min: 0.077842 
position of yplus max: -12.042 1.28668 1.93393 
yplus prom: 7.57934 
forces: 1206.166582 -0.018194 -491.061983 
Drag coefficient: 0.336427 
torque (ref. CG): 0.025471 (roll) -1306.844880 (pitch) 0.110980 (yaw) 
----------------------------------------------------- 

 *****************************
  Post-calculation operations
 *****************************

Ends run at mié ago 24 21:46:55 ART 2022
