Start run at jue ago 25 19:13:46 ART 2022
PYTHON_CS_XFLAGS=' -O0 -g3 -ggdb3 -I/usr/include/jsoncpp ' /share/storage/pub/mstorti/saturne-vof/bin/code_saturne  run --param setup.xml

The following have been reloaded with a version change:
  1) llvm/6.0.0 => llvm/3.4.2


The following have been reloaded with a version change:
  1) llvm/3.4.2 => llvm/6.0.0


                      Code_Saturne
                      ************

 Version:   6.1-alpha
 Path:      /share/storage/pub/mstorti/saturne-vof

 Result directory:
   /share/storage/finzeo/GTS_Tunay_2/RESU/20220825-1913


 ****************************************
  Compiling user subroutines and linking
 ****************************************


 ****************************
  Preparing calculation data
 ****************************

 Parallel Code_Saturne on 120 processes.


 ***************************
  Preprocessing calculation
 ***************************


 **********************
  Starting calculation
 **********************

Warning: Process to core binding is enabled and OMP_NUM_THREADS is set to non-zero (1) value
If your program has OpenMP sections, this can cause over-subscription of cores and consequently poor performance
To avoid this, please re-run your application after setting MV2_ENABLE_AFFINITY=0
Use MV2_USE_THREAD_WARNING=0 to suppress this message
step 1, time 0.000500, maxvel 30.000000, total vol 183256, vol(u>maxvel) 7.62513, cell count 1254863
bounding box (containing cells with vel>maxvel): xmin -12.2898 -1.84612 -0.484612, xmax 0.21023 1.84606 4.03089m 
bounding box of vehicle: xmin -12.2 -1.3 -6.44084e-18, xmax 6.65768e-18 1.30001 3.6m 
gts area: 163.395 
yplus max: 104.856, yplus min: 0 
position of yplus max: -9.1657 1.29935 3.38866 
yplus prom: 6.67568 
forces: 49917936.910575 42301.913949 -5648448.287731 
Drag coefficient: 13931.332877 
torque (ref. CG): -59222.679528 (roll) 35429577.119642 (pitch) -258041.675087 (yaw) 
----------------------------------------------------- 
step 2, time 0.001000, maxvel 30.000000, total vol 183256, vol(u>maxvel) 7.89722, cell count 1560852
bounding box (containing cells with vel>maxvel): xmin -12.2898 -1.84648 -0.489163, xmax 0.210946 1.84631 4.10548m 
bounding box of vehicle: xmin -12.2 -1.3 -6.44084e-18, xmax 6.65768e-18 1.30001 3.6m 
gts area: 163.395 
yplus max: 108.576, yplus min: 0.189158 
position of yplus max: -9.1657 1.29935 3.38866 
yplus prom: 3.12214 
forces: 1232340.759506 9.320815 -154515.854265 
Drag coefficient: 343.927462 
torque (ref. CG): -13.049140 (roll) 782730.352294 (pitch) -56.856969 (yaw) 
----------------------------------------------------- 
step 3, time 0.001500, maxvel 30.000000, total vol 183256, vol(u>maxvel) 7.8864, cell count 1695351
bounding box (containing cells with vel>maxvel): xmin -12.2898 -1.84648 -0.489163, xmax 0.213239 1.84631 4.10548m 
bounding box of vehicle: xmin -12.2 -1.3 -6.44084e-18, xmax 6.65768e-18 1.30001 3.6m 
gts area: 163.395 
yplus max: 113.205, yplus min: 0.0677327 
position of yplus max: -12.0211 1.28998 2.0049 
yplus prom: 3.16165 
forces: 27373.962679 -1.768858 -3714.290048 
Drag coefficient: 7.639654 
torque (ref. CG): 2.476402 (roll) 15666.378455 (pitch) 10.790036 (yaw) 
----------------------------------------------------- 
step 4, time 0.002000, maxvel 30.000000, total vol 183256, vol(u>maxvel) 7.87388, cell count 1765723
bounding box (containing cells with vel>maxvel): xmin -12.2898 -1.84648 -0.489163, xmax 0.21345 1.8463 4.10548m 
bounding box of vehicle: xmin -12.2 -1.3 -6.44084e-18, xmax 6.65768e-18 1.30001 3.6m 
gts area: 163.395 
yplus max: 114.027, yplus min: 0.0614951 
position of yplus max: -12.0211 1.28998 2.0049 
yplus prom: 3.0226 
forces: 2162.338480 -0.328047 -806.601562 
Drag coefficient: 0.603476 
torque (ref. CG): 0.459266 (roll) -1892.995657 (pitch) 2.001087 (yaw) 
----------------------------------------------------- 
step 5, time 0.002500, maxvel 30.000000, total vol 183256, vol(u>maxvel) 7.8651, cell count 1747159
bounding box (containing cells with vel>maxvel): xmin -12.2897 -1.8464 -0.489163, xmax 0.213523 1.84624 4.10548m 
bounding box of vehicle: xmin -12.2 -1.3 -6.44084e-18, xmax 6.65768e-18 1.30001 3.6m 
gts area: 163.395 
yplus max: 114.83, yplus min: 0.0644972 
position of yplus max: -12.0211 -1.28998 2.0049 
yplus prom: 2.86202 
forces: 2260.884636 -0.208071 -900.336639 
Drag coefficient: 0.630978 
torque (ref. CG): 0.291299 (roll) -2326.815008 (pitch) 1.269231 (yaw) 
----------------------------------------------------- 
step 6, time 0.003000, maxvel 30.000000, total vol 183256, vol(u>maxvel) 7.86187, cell count 1730769
bounding box (containing cells with vel>maxvel): xmin -12.2896 -1.8464 -0.489163, xmax 0.266229 1.84624 4.10547m 
bounding box of vehicle: xmin -12.2 -1.3 -6.44084e-18, xmax 6.65768e-18 1.30001 3.6m 
gts area: 163.395 
yplus max: 115.796, yplus min: 0.0608771 
position of yplus max: -12.0211 -1.28998 2.0049 
yplus prom: 2.78124 
forces: 2470.930473 -0.073736 -912.983854 
Drag coefficient: 0.689599 
torque (ref. CG): 0.103231 (roll) -2109.898848 (pitch) 0.449793 (yaw) 
----------------------------------------------------- 
step 7, time 0.003500, maxvel 30.000000, total vol 183256, vol(u>maxvel) 7.85549, cell count 1717366
bounding box (containing cells with vel>maxvel): xmin -12.2893 -1.84631 -0.489163, xmax 0.266682 1.84624 4.10545m 
bounding box of vehicle: xmin -12.2 -1.3 -6.44084e-18, xmax 6.65768e-18 1.30001 3.6m 
gts area: 163.395 
yplus max: 116.828, yplus min: 0.0490293 
position of yplus max: -12.0211 1.28998 2.0049 
yplus prom: 2.7321 
forces: 2589.978009 -0.056572 -910.067500 
Drag coefficient: 0.722823 
torque (ref. CG): 0.079201 (roll) -1925.442539 (pitch) 0.345091 (yaw) 
----------------------------------------------------- 
step 8, time 0.004000, maxvel 30.000000, total vol 183256, vol(u>maxvel) 7.84408, cell count 1700467
bounding box (containing cells with vel>maxvel): xmin -12.2893 -1.84631 -0.492664, xmax 0.266751 1.84617 4.10545m 
bounding box of vehicle: xmin -12.2 -1.3 -6.44084e-18, xmax 6.65768e-18 1.30001 3.6m 
gts area: 163.395 
yplus max: 118.02, yplus min: 0.0532466 
position of yplus max: -12.0211 1.28998 2.0049 
yplus prom: 2.70349 
forces: 2691.518652 -0.034280 -906.056687 
Drag coefficient: 0.751162 
torque (ref. CG): 0.047992 (roll) -1758.819678 (pitch) 0.209107 (yaw) 
----------------------------------------------------- 
step 9, time 0.004500, maxvel 30.000000, total vol 183256, vol(u>maxvel) 7.83142, cell count 1673242
bounding box (containing cells with vel>maxvel): xmin -12.2893 -1.84631 -0.492664, xmax 0.266807 1.84617 4.03088m 
bounding box of vehicle: xmin -12.2 -1.3 -6.44084e-18, xmax 6.65768e-18 1.30001 3.6m 
gts area: 163.395 
yplus max: 119.235, yplus min: 0.0346557 
position of yplus max: -12.0211 1.28998 2.0049 
yplus prom: 2.68978 
forces: 2776.977017 -0.023347 -903.065146 
Drag coefficient: 0.775012 
torque (ref. CG): 0.032686 (roll) -1620.929569 (pitch) 0.142417 (yaw) 
----------------------------------------------------- 
step 10, time 0.005000, maxvel 30.000000, total vol 183256, vol(u>maxvel) 7.81045, cell count 1666702
bounding box (containing cells with vel>maxvel): xmin -12.2893 -1.84622 -0.492664, xmax 0.266824 1.84612 4.03088m 
bounding box of vehicle: xmin -12.2 -1.3 -6.44084e-18, xmax 6.65768e-18 1.30001 3.6m 
gts area: 163.395 
yplus max: 120.436, yplus min: 0.0484013 
position of yplus max: -12.0211 1.28998 2.0049 
yplus prom: 2.68716 
forces: 2849.877123 -0.018443 -900.854931 
Drag coefficient: 0.795357 
torque (ref. CG): 0.025820 (roll) -1505.387107 (pitch) 0.112502 (yaw) 
----------------------------------------------------- 
step 11, time 0.005500, maxvel 30.000000, total vol 183256, vol(u>maxvel) 7.79681, cell count 1668377
bounding box (containing cells with vel>maxvel): xmin -12.2893 -1.84622 -0.492664, xmax 0.26686 1.84612 4.03088m 
bounding box of vehicle: xmin -12.2 -1.3 -6.44084e-18, xmax 6.65768e-18 1.30001 3.6m 
gts area: 163.395 
yplus max: 121.598, yplus min: 0.047095 
position of yplus max: -12.0211 1.28998 2.0049 
yplus prom: 2.69241 
forces: 2911.106117 -0.011505 -899.359966 
Drag coefficient: 0.812445 
torque (ref. CG): 0.016107 (roll) -1410.547228 (pitch) 0.070183 (yaw) 
----------------------------------------------------- 
step 12, time 0.006000, maxvel 30.000000, total vol 183256, vol(u>maxvel) 7.80166, cell count 1667688
bounding box (containing cells with vel>maxvel): xmin -12.2893 -1.84622 -0.492664, xmax 0.266876 1.84612 4.03088m 
bounding box of vehicle: xmin -12.2 -1.3 -6.44084e-18, xmax 6.65768e-18 1.30001 3.6m 
gts area: 163.395 
yplus max: 122.701, yplus min: 0.0465785 
position of yplus max: -12.0211 1.28998 2.0049 
yplus prom: 2.70287 
forces: 2963.761535 -0.014005 -897.938901 
Drag coefficient: 0.827141 
torque (ref. CG): 0.019607 (roll) -1328.161146 (pitch) 0.085429 (yaw) 
----------------------------------------------------- 
step 13, time 0.006500, maxvel 30.000000, total vol 183256, vol(u>maxvel) 7.81995, cell count 1670181
bounding box (containing cells with vel>maxvel): xmin -12.2892 -1.84612 -0.495358, xmax 0.268724 1.84606 4.03088m 
bounding box of vehicle: xmin -12.2 -1.3 -6.44084e-18, xmax 6.65768e-18 1.30001 3.6m 
gts area: 163.395 
yplus max: 123.734, yplus min: 0.0436768 
position of yplus max: -12.0211 1.28998 2.0049 
yplus prom: 2.71678 
forces: 3011.294282 -0.015047 -895.946384 
Drag coefficient: 0.840406 
torque (ref. CG): 0.021065 (roll) -1249.460947 (pitch) 0.091785 (yaw) 
----------------------------------------------------- 
step 14, time 0.007000, maxvel 30.000000, total vol 183256, vol(u>maxvel) 7.81539, cell count 1673218
bounding box (containing cells with vel>maxvel): xmin -12.2892 -1.84612 -0.495358, xmax 0.268804 1.84606 4.03087m 
bounding box of vehicle: xmin -12.2 -1.3 -6.44084e-18, xmax 6.65768e-18 1.30001 3.6m 
gts area: 163.395 
yplus max: 124.688, yplus min: 0.0406132 
position of yplus max: -12.0211 1.28998 2.0049 
yplus prom: 2.73271 
forces: 3054.456719 -0.021477 -895.007339 
Drag coefficient: 0.852452 
torque (ref. CG): 0.030068 (roll) -1183.305364 (pitch) 0.131009 (yaw) 
----------------------------------------------------- 
step 15, time 0.007500, maxvel 30.000000, total vol 183256, vol(u>maxvel) 7.81758, cell count 1675146
bounding box (containing cells with vel>maxvel): xmin -12.2892 -1.84609 -0.495358, xmax 0.268856 1.84605 4.03087m 
bounding box of vehicle: xmin -12.2 -1.3 -6.44084e-18, xmax 6.65768e-18 1.30001 3.6m 
gts area: 163.395 
yplus max: 125.558, yplus min: 0.0383928 
position of yplus max: -12.0211 1.28998 2.0049 
yplus prom: 2.74939 
forces: 3090.103838 -0.027162 -894.168125 
Drag coefficient: 0.862401 
torque (ref. CG): 0.038027 (roll) -1128.280192 (pitch) 0.165688 (yaw) 
----------------------------------------------------- 
step 16, time 0.008000, maxvel 30.000000, total vol 183256, vol(u>maxvel) 7.81619, cell count 1675937
bounding box (containing cells with vel>maxvel): xmin -12.2892 -1.84603 -0.495358, xmax 0.26888 1.846 4.03087m 
bounding box of vehicle: xmin -12.2 -1.3 -6.44084e-18, xmax 6.65768e-18 1.30001 3.6m 
gts area: 163.395 
yplus max: 126.345, yplus min: 0.0374352 
position of yplus max: -12.0211 1.28998 2.0049 
yplus prom: 2.7665 
forces: 3119.451255 -0.029884 -893.726290 
Drag coefficient: 0.870591 
torque (ref. CG): 0.041838 (roll) -1084.498614 (pitch) 0.182294 (yaw) 
----------------------------------------------------- 
step 17, time 0.008500, maxvel 30.000000, total vol 183256, vol(u>maxvel) 7.80505, cell count 1675388
bounding box (containing cells with vel>maxvel): xmin -12.2892 -1.84603 -0.495358, xmax 0.268928 1.846 4.03087m 
bounding box of vehicle: xmin -12.2 -1.3 -6.44084e-18, xmax 6.65768e-18 1.30001 3.6m 
gts area: 163.395 
yplus max: 127.048, yplus min: 0.0379121 
position of yplus max: -12.0211 1.28998 2.0049 
yplus prom: 2.78366 
forces: 3143.092285 -0.039535 -893.311240 
Drag coefficient: 0.877189 
torque (ref. CG): 0.055349 (roll) -1048.869368 (pitch) 0.241164 (yaw) 
----------------------------------------------------- 
step 18, time 0.009000, maxvel 30.000000, total vol 183256, vol(u>maxvel) 7.79362, cell count 1676432
bounding box (containing cells with vel>maxvel): xmin -12.2892 -1.846 -0.497429, xmax 0.268948 1.84599 4.03087m 
bounding box of vehicle: xmin -12.2 -1.3 -6.44084e-18, xmax 6.65768e-18 1.30001 3.6m 
gts area: 163.395 
yplus max: 127.67, yplus min: 0.035032 
position of yplus max: -12.0211 1.28998 2.0049 
yplus prom: 2.80047 
forces: 3162.909715 -0.043083 -893.043889 
Drag coefficient: 0.882720 
torque (ref. CG): 0.060316 (roll) -1019.494121 (pitch) 0.262805 (yaw) 
----------------------------------------------------- 
step 19, time 0.009500, maxvel 30.000000, total vol 183256, vol(u>maxvel) 7.78422, cell count 1673479
bounding box (containing cells with vel>maxvel): xmin -12.2892 -1.84594 -0.497429, xmax 0.268961 1.84593 4.03087m 
bounding box of vehicle: xmin -12.2 -1.3 -6.44084e-18, xmax 6.65768e-18 1.30001 3.6m 
gts area: 163.395 
yplus max: 128.216, yplus min: 0.0317312 
position of yplus max: -12.0211 1.28998 2.0049 
yplus prom: 2.81655 
forces: 3180.373299 -0.048726 -892.896698 
Drag coefficient: 0.887594 
torque (ref. CG): 0.068217 (roll) -994.147239 (pitch) 0.297231 (yaw) 
----------------------------------------------------- 
step 20, time 0.010000, maxvel 30.000000, total vol 183256, vol(u>maxvel) 7.78849, cell count 1667807
bounding box (containing cells with vel>maxvel): xmin -12.2892 -1.84592 -0.497429, xmax 0.34192 1.84592 4.03087m 
bounding box of vehicle: xmin -12.2 -1.3 -6.44084e-18, xmax 6.65768e-18 1.30001 3.6m 
gts area: 163.395 
yplus max: 128.689, yplus min: 0.0305918 
position of yplus max: -12.0211 1.28998 2.0049 
yplus prom: 2.83157 
forces: 3195.068286 -0.053336 -892.823294 
Drag coefficient: 0.891695 
torque (ref. CG): 0.074670 (roll) -973.126492 (pitch) 0.325348 (yaw) 
----------------------------------------------------- 
step 21, time 0.010500, maxvel 30.000000, total vol 183256, vol(u>maxvel) 7.78075, cell count 1660819
bounding box (containing cells with vel>maxvel): xmin -12.2892 -1.84592 -0.497429, xmax 0.342019 1.84592 4.03087m 
bounding box of vehicle: xmin -12.2 -1.3 -6.44084e-18, xmax 6.65768e-18 1.30001 3.6m 
gts area: 163.395 
yplus max: 129.097, yplus min: 0.0275831 
position of yplus max: -12.0211 1.28998 2.0049 
yplus prom: 2.84535 
forces: 3207.085118 -0.063411 -892.736932 
Drag coefficient: 0.895048 
torque (ref. CG): 0.088775 (roll) -955.776121 (pitch) 0.386807 (yaw) 
----------------------------------------------------- 
step 22, time 0.011000, maxvel 30.000000, total vol 183256, vol(u>maxvel) 7.76824, cell count 1654034
bounding box (containing cells with vel>maxvel): xmin -12.2892 -1.84582 -0.497429, xmax 0.342044 1.84582 4.03087m 
bounding box of vehicle: xmin -12.2 -1.3 -6.44084e-18, xmax 6.65768e-18 1.30001 3.6m 
gts area: 163.395 
yplus max: 129.444, yplus min: 0.0280809 
position of yplus max: -12.0211 1.28998 2.0049 
yplus prom: 2.85781 
forces: 3216.970480 -0.072008 -892.737961 
Drag coefficient: 0.897807 
torque (ref. CG): 0.100812 (roll) -941.942887 (pitch) 0.439251 (yaw) 
----------------------------------------------------- 
step 23, time 0.011500, maxvel 30.000000, total vol 183256, vol(u>maxvel) 7.75698, cell count 1645787
bounding box (containing cells with vel>maxvel): xmin -12.2892 -1.84582 -0.497429, xmax 0.342089 1.84582 4.03087m 
bounding box of vehicle: xmin -12.2 -1.3 -6.44084e-18, xmax 6.65768e-18 1.30001 3.6m 
gts area: 163.395 
yplus max: 129.738, yplus min: 0.0229984 
position of yplus max: -12.0211 1.28998 2.0049 
yplus prom: 2.86899 
forces: 3224.805003 -0.081644 -892.596718 
Drag coefficient: 0.899994 
torque (ref. CG): 0.114301 (roll) -930.112976 (pitch) 0.498027 (yaw) 
----------------------------------------------------- 
step 24, time 0.012000, maxvel 30.000000, total vol 183256, vol(u>maxvel) 7.74896, cell count 1638062
bounding box (containing cells with vel>maxvel): xmin -12.2892 -1.84571 -0.499023, xmax 0.342111 1.84571 4.03086m 
bounding box of vehicle: xmin -12.2 -1.3 -6.44084e-18, xmax 6.65768e-18 1.30001 3.6m 
gts area: 163.395 
yplus max: 129.984, yplus min: 0.026842 
position of yplus max: -12.0211 1.28998 2.0049 
yplus prom: 2.87895 
forces: 3230.720645 -0.089553 -892.347853 
Drag coefficient: 0.901645 
torque (ref. CG): 0.125374 (roll) -920.312998 (pitch) 0.546272 (yaw) 
----------------------------------------------------- 
step 25, time 0.012500, maxvel 30.000000, total vol 183256, vol(u>maxvel) 7.75444, cell count 1632389
bounding box (containing cells with vel>maxvel): xmin -12.2892 -1.8456 -0.499023, xmax 0.344045 1.84558 4.03086m 
bounding box of vehicle: xmin -12.2 -1.3 -6.44084e-18, xmax 6.65768e-18 1.30001 3.6m 
gts area: 163.395 
yplus max: 130.189, yplus min: 0.0237411 
position of yplus max: -12.0211 1.28998 2.0049 
yplus prom: 2.88782 
forces: 3234.382964 -0.098622 -892.000099 
Drag coefficient: 0.902667 
torque (ref. CG): 0.138071 (roll) -913.064457 (pitch) 0.601597 (yaw) 
----------------------------------------------------- 
step 26, time 0.013000, maxvel 30.000000, total vol 183256, vol(u>maxvel) 7.75957, cell count 1627305
bounding box (containing cells with vel>maxvel): xmin -12.2892 -1.8456 -0.499023, xmax 0.344135 1.84558 4.03086m 
bounding box of vehicle: xmin -12.2 -1.3 -6.44084e-18, xmax 6.65768e-18 1.30001 3.6m 
gts area: 163.395 
yplus max: 130.359, yplus min: 0.0197426 
position of yplus max: -12.0211 1.28998 2.0049 
yplus prom: 2.89574 
forces: 3235.916961 -0.109685 -891.513568 
Drag coefficient: 0.903095 
torque (ref. CG): 0.153559 (roll) -907.949018 (pitch) 0.669079 (yaw) 
----------------------------------------------------- 
step 27, time 0.013500, maxvel 30.000000, total vol 183256, vol(u>maxvel) 7.76803, cell count 1623836
bounding box (containing cells with vel>maxvel): xmin -12.2892 -1.84536 -0.499023, xmax 0.344223 1.84531 4.03086m 
bounding box of vehicle: xmin -12.2 -1.3 -6.44084e-18, xmax 6.65768e-18 1.30001 3.6m 
gts area: 163.395 
yplus max: 130.499, yplus min: 0.0248847 
position of yplus max: -12.0211 1.28998 2.0049 
yplus prom: 2.90281 
forces: 3235.557250 -0.115915 -891.023941 
Drag coefficient: 0.902995 
torque (ref. CG): 0.162282 (roll) -905.465893 (pitch) 0.707084 (yaw) 
----------------------------------------------------- 
step 28, time 0.014000, maxvel 30.000000, total vol 183256, vol(u>maxvel) 7.76941, cell count 1620840
bounding box (containing cells with vel>maxvel): xmin -12.2892 -1.77188 -0.499023, xmax 0.344287 1.77169 4.03086m 
bounding box of vehicle: xmin -12.2 -1.3 -6.44084e-18, xmax 6.65768e-18 1.30001 3.6m 
gts area: 163.395 
yplus max: 130.613, yplus min: 0.0160113 
position of yplus max: -12.0211 1.28998 2.0049 
yplus prom: 2.90914 
forces: 3233.775238 -0.122854 -890.575993 
Drag coefficient: 0.902497 
torque (ref. CG): 0.171995 (roll) -905.228227 (pitch) 0.749407 (yaw) 
----------------------------------------------------- 
step 29, time 0.014500, maxvel 30.000000, total vol 183256, vol(u>maxvel) 7.77185, cell count 1618966
bounding box (containing cells with vel>maxvel): xmin -12.2892 -1.77188 -0.499023, xmax 0.344315 1.77169 4.03086m 
bounding box of vehicle: xmin -12.2 -1.3 -6.44084e-18, xmax 6.65768e-18 1.30001 3.6m 
gts area: 163.395 
yplus max: 130.705, yplus min: 0.0193545 
position of yplus max: -12.0211 1.28998 2.0049 
yplus prom: 2.91482 
forces: 3231.032457 -0.129213 -890.166530 
Drag coefficient: 0.901732 
torque (ref. CG): 0.180898 (roll) -906.570394 (pitch) 0.788197 (yaw) 
----------------------------------------------------- 
step 30, time 0.015000, maxvel 30.000000, total vol 183256, vol(u>maxvel) 7.77402, cell count 1617060
bounding box (containing cells with vel>maxvel): xmin -12.2892 -1.77188 -0.499023, xmax 0.344341 1.77169 4.03086m 
bounding box of vehicle: xmin -12.2 -1.3 -6.44084e-18, xmax 6.65768e-18 1.30001 3.6m 
gts area: 163.395 
yplus max: 130.78, yplus min: 0.0151733 
position of yplus max: -12.0211 1.28998 2.0049 
yplus prom: 2.91992 
forces: 3227.524600 -0.136187 -889.707153 
Drag coefficient: 0.900753 
torque (ref. CG): 0.190662 (roll) -908.679194 (pitch) 0.830742 (yaw) 
----------------------------------------------------- 
step 31, time 0.015500, maxvel 30.000000, total vol 183256, vol(u>maxvel) 7.77287, cell count 1613958
bounding box (containing cells with vel>maxvel): xmin -12.2892 -1.77188 -0.500249, xmax 0.344365 1.77169 4.03086m 
bounding box of vehicle: xmin -12.2 -1.3 -6.44084e-18, xmax 6.65768e-18 1.30001 3.6m 
gts area: 163.395 
yplus max: 130.839, yplus min: 0.0164349 
position of yplus max: -12.0211 1.28998 2.0049 
yplus prom: 2.92447 
forces: 3223.427805 -0.141028 -889.254202 
Drag coefficient: 0.899609 
torque (ref. CG): 0.197439 (roll) -911.651707 (pitch) 0.860270 (yaw) 
----------------------------------------------------- 
step 32, time 0.016000, maxvel 30.000000, total vol 183256, vol(u>maxvel) 7.76247, cell count 1611370
bounding box (containing cells with vel>maxvel): xmin -12.2892 -1.77184 -0.500249, xmax 0.34462 1.77164 4.03086m 
bounding box of vehicle: xmin -12.2 -1.3 -6.44084e-18, xmax 6.65768e-18 1.30001 3.6m 
gts area: 163.395 
yplus max: 130.887, yplus min: 0.0131959 
position of yplus max: -12.0211 1.28998 2.0049 
yplus prom: 2.92849 
forces: 3218.897114 -0.144746 -888.796681 
Drag coefficient: 0.898345 
torque (ref. CG): 0.202645 (roll) -915.203794 (pitch) 0.882953 (yaw) 
----------------------------------------------------- 
step 33, time 0.016500, maxvel 30.000000, total vol 183256, vol(u>maxvel) 7.75296, cell count 1608602
bounding box (containing cells with vel>maxvel): xmin -12.2892 -1.77184 -0.500249, xmax 0.344622 1.77164 4.03085m 
bounding box of vehicle: xmin -12.2 -1.3 -6.44084e-18, xmax 6.65768e-18 1.30001 3.6m 
gts area: 163.395 
yplus max: 130.924, yplus min: 0.0182855 
position of yplus max: -12.0211 1.28998 2.0049 
yplus prom: 2.93202 
forces: 3214.121852 -0.145020 -888.382461 
Drag coefficient: 0.897012 
torque (ref. CG): 0.203028 (roll) -919.362419 (pitch) 0.884620 (yaw) 
----------------------------------------------------- 
step 34, time 0.017000, maxvel 30.000000, total vol 183256, vol(u>maxvel) 7.74835, cell count 1606114
bounding box (containing cells with vel>maxvel): xmin -12.2892 -1.77184 -0.500249, xmax 0.344627 1.77164 4.03085m 
bounding box of vehicle: xmin -12.2 -1.3 -6.44084e-18, xmax 6.65768e-18 1.30001 3.6m 
gts area: 163.395 
yplus max: 130.953, yplus min: 0.00746725 
position of yplus max: -12.0211 1.28998 2.0049 
yplus prom: 2.93514 
forces: 3209.058901 -0.146543 -887.986898 
Drag coefficient: 0.895599 
torque (ref. CG): 0.205161 (roll) -924.037618 (pitch) 0.893914 (yaw) 
----------------------------------------------------- 
step 35, time 0.017500, maxvel 30.000000, total vol 183256, vol(u>maxvel) 7.72794, cell count 1602058
bounding box (containing cells with vel>maxvel): xmin -12.2892 -1.77184 -0.500249, xmax 0.344634 1.77164 4.03085m 
bounding box of vehicle: xmin -12.2 -1.3 -6.44084e-18, xmax 6.65768e-18 1.30001 3.6m 
gts area: 163.395 
yplus max: 130.975, yplus min: 0.0177448 
position of yplus max: -12.0211 1.28998 2.0049 
yplus prom: 2.9379 
forces: 3203.616384 -0.148073 -887.548812 
Drag coefficient: 0.894080 
torque (ref. CG): 0.207302 (roll) -928.984814 (pitch) 0.903245 (yaw) 
----------------------------------------------------- 
step 36, time 0.018000, maxvel 30.000000, total vol 183256, vol(u>maxvel) 7.72795, cell count 1597803
bounding box (containing cells with vel>maxvel): xmin -12.2892 -1.77184 -0.500249, xmax 0.416851 1.77164 4.03083m 
bounding box of vehicle: xmin -12.2 -1.3 -6.44084e-18, xmax 6.65768e-18 1.30001 3.6m 
gts area: 163.395 
yplus max: 130.991, yplus min: 0.0184251 
position of yplus max: -12.0211 1.28998 2.0049 
yplus prom: 2.94041 
forces: 3197.928814 -0.145056 -887.119700 
Drag coefficient: 0.892493 
torque (ref. CG): 0.203078 (roll) -934.329829 (pitch) 0.884840 (yaw) 
----------------------------------------------------- 
step 37, time 0.018500, maxvel 30.000000, total vol 183256, vol(u>maxvel) 7.72329, cell count 1594138
bounding box (containing cells with vel>maxvel): xmin -12.2892 -1.7718 -0.500249, xmax 0.416995 1.77158 4.03082m 
bounding box of vehicle: xmin -12.2 -1.3 -6.44084e-18, xmax 6.65768e-18 1.30001 3.6m 
gts area: 163.395 
yplus max: 131.002, yplus min: 0.0173771 
position of yplus max: -12.0211 1.28998 2.0049 
yplus prom: 2.94267 
forces: 3191.913609 -0.142965 -886.742773 
Drag coefficient: 0.890814 
torque (ref. CG): 0.200151 (roll) -940.451864 (pitch) 0.872085 (yaw) 
----------------------------------------------------- 
step 38, time 0.019000, maxvel 30.000000, total vol 183256, vol(u>maxvel) 7.72959, cell count 1590023
bounding box (containing cells with vel>maxvel): xmin -12.2892 -1.7718 -0.500249, xmax 0.418689 1.77158 4.03082m 
bounding box of vehicle: xmin -12.2 -1.3 -6.44084e-18, xmax 6.65768e-18 1.30001 3.6m 
gts area: 163.395 
yplus max: 131.01, yplus min: 0.00843907 
position of yplus max: -12.0211 1.28998 2.0049 
yplus prom: 2.9447 
forces: 3185.511679 -0.141807 -886.388225 
Drag coefficient: 0.889028 
torque (ref. CG): 0.198529 (roll) -947.251820 (pitch) 0.865020 (yaw) 
----------------------------------------------------- 
step 39, time 0.019500, maxvel 30.000000, total vol 183256, vol(u>maxvel) 7.74251, cell count 1585589
bounding box (containing cells with vel>maxvel): xmin -12.2892 -1.7718 -0.501192, xmax 0.419203 1.77158 4.03082m 
bounding box of vehicle: xmin -12.2 -1.3 -6.44084e-18, xmax 6.65768e-18 1.30001 3.6m 
gts area: 163.395 
yplus max: 131.014, yplus min: 0.00939765 
position of yplus max: -12.0211 1.28998 2.0049 
yplus prom: 2.94651 
forces: 3178.794257 -0.136796 -885.904756 
Drag coefficient: 0.887153 
torque (ref. CG): 0.191514 (roll) -953.707053 (pitch) 0.834456 (yaw) 
----------------------------------------------------- 
step 40, time 0.020000, maxvel 30.000000, total vol 183256, vol(u>maxvel) 7.74525, cell count 1580077
bounding box (containing cells with vel>maxvel): xmin -12.2892 -1.7718 -0.501192, xmax 0.419249 1.77158 4.03082m 
bounding box of vehicle: xmin -12.2 -1.3 -6.44084e-18, xmax 6.65768e-18 1.30001 3.6m 
gts area: 163.395 
yplus max: 131.016, yplus min: 0.0100993 
position of yplus max: -12.0211 1.28998 2.0049 
yplus prom: 2.94817 
forces: 3172.239185 -0.133032 -885.516980 
Drag coefficient: 0.885323 
torque (ref. CG): 0.186245 (roll) -960.518718 (pitch) 0.811495 (yaw) 
----------------------------------------------------- 
step 41, time 0.020500, maxvel 30.000000, total vol 183256, vol(u>maxvel) 7.74949, cell count 1574766
bounding box (containing cells with vel>maxvel): xmin -12.2892 -1.7718 -0.501192, xmax 0.419249 1.77158 4.03082m 
bounding box of vehicle: xmin -12.2 -1.3 -6.44084e-18, xmax 6.65768e-18 1.30001 3.6m 
gts area: 163.395 
yplus max: 131.015, yplus min: 0.0101964 
position of yplus max: -12.0211 1.28998 2.0049 
yplus prom: 2.94967 
forces: 3165.738421 -0.132184 -885.091114 
Drag coefficient: 0.883509 
torque (ref. CG): 0.185057 (roll) -967.022004 (pitch) 0.806319 (yaw) 
----------------------------------------------------- 
step 42, time 0.021000, maxvel 30.000000, total vol 183256, vol(u>maxvel) 7.74512, cell count 1568357
bounding box (containing cells with vel>maxvel): xmin -12.2891 -1.77174 -0.501192, xmax 0.419249 1.77152 4.03081m 
bounding box of vehicle: xmin -12.2 -1.3 -6.44084e-18, xmax 6.65768e-18 1.30001 3.6m 
gts area: 163.395 
yplus max: 131.012, yplus min: 0.0122438 
position of yplus max: -12.0211 1.28998 2.0049 
yplus prom: 2.95104 
forces: 3159.303294 -0.127752 -884.688162 
Drag coefficient: 0.881713 
torque (ref. CG): 0.178853 (roll) -973.573178 (pitch) 0.779289 (yaw) 
----------------------------------------------------- 
step 43, time 0.021500, maxvel 30.000000, total vol 183256, vol(u>maxvel) 7.74004, cell count 1562183
bounding box (containing cells with vel>maxvel): xmin -12.2891 -1.77174 -0.501192, xmax 0.419401 1.77152 4.03081m 
bounding box of vehicle: xmin -12.2 -1.3 -6.44084e-18, xmax 6.65768e-18 1.30001 3.6m 
gts area: 163.395 
yplus max: 131.008, yplus min: 0.0149613 
position of yplus max: -12.0211 1.28998 2.0049 
yplus prom: 2.95231 
forces: 3153.041927 -0.122568 -884.402500 
Drag coefficient: 0.879966 
torque (ref. CG): 0.171595 (roll) -980.596554 (pitch) 0.747665 (yaw) 
----------------------------------------------------- 
step 44, time 0.022000, maxvel 30.000000, total vol 183256, vol(u>maxvel) 7.73161, cell count 1556610
bounding box (containing cells with vel>maxvel): xmin -12.2891 -1.77174 -0.501917, xmax 0.419434 1.77152 4.03081m 
bounding box of vehicle: xmin -12.2 -1.3 -6.44084e-18, xmax 6.65768e-18 1.30001 3.6m 
gts area: 163.395 
yplus max: 131.002, yplus min: 0.021463 
position of yplus max: -12.0211 1.28998 2.0049 
yplus prom: 2.95348 
forces: 3146.637583 -0.119734 -884.098703 
Drag coefficient: 0.878178 
torque (ref. CG): 0.167627 (roll) -987.709471 (pitch) 0.730375 (yaw) 
----------------------------------------------------- 
step 45, time 0.022500, maxvel 30.000000, total vol 183256, vol(u>maxvel) 7.70937, cell count 1550540
bounding box (containing cells with vel>maxvel): xmin -12.2891 -1.77166 -0.501917, xmax 0.419434 1.77147 4.0308m 
bounding box of vehicle: xmin -12.2 -1.3 -6.44084e-18, xmax 6.65768e-18 1.30001 3.6m 
gts area: 163.395 
yplus max: 130.996, yplus min: 0.0212818 
position of yplus max: -12.0211 1.28998 2.0049 
yplus prom: 2.95457 
forces: 3140.044838 -0.116037 -883.728056 
Drag coefficient: 0.876338 
torque (ref. CG): 0.162452 (roll) -994.678366 (pitch) 0.707825 (yaw) 
----------------------------------------------------- 
step 46, time 0.023000, maxvel 30.000000, total vol 183256, vol(u>maxvel) 7.69964, cell count 1544023
bounding box (containing cells with vel>maxvel): xmin -12.2891 -1.77166 -0.501917, xmax 0.419469 1.77147 4.02918m 
bounding box of vehicle: xmin -12.2 -1.3 -6.44084e-18, xmax 6.65768e-18 1.30001 3.6m 
gts area: 163.395 
yplus max: 130.988, yplus min: 0.0197181 
position of yplus max: -12.0211 1.28998 2.0049 
yplus prom: 2.95557 
forces: 3133.359583 -0.114526 -883.371553 
Drag coefficient: 0.874473 
torque (ref. CG): 0.160337 (roll) -1001.863056 (pitch) 0.698610 (yaw) 
----------------------------------------------------- 
step 47, time 0.023500, maxvel 30.000000, total vol 183256, vol(u>maxvel) 7.6792, cell count 1537028
bounding box (containing cells with vel>maxvel): xmin -12.2891 -1.77166 -0.502475, xmax 0.419472 1.77147 4.02918m 
bounding box of vehicle: xmin -12.2 -1.3 -6.44084e-18, xmax 6.65768e-18 1.30001 3.6m 
gts area: 163.395 
yplus max: 130.98, yplus min: 0.0244528 
position of yplus max: -12.0211 1.28998 2.0049 
yplus prom: 2.9565 
forces: 3126.720666 -0.108885 -882.976648 
Drag coefficient: 0.872620 
torque (ref. CG): 0.152439 (roll) -1008.748621 (pitch) 0.664197 (yaw) 
----------------------------------------------------- 
step 48, time 0.024000, maxvel 30.000000, total vol 183256, vol(u>maxvel) 7.66546, cell count 1531271
bounding box (containing cells with vel>maxvel): xmin -12.2891 -1.77157 -0.502475, xmax 0.419474 1.77141 4.02918m 
bounding box of vehicle: xmin -12.2 -1.3 -6.44084e-18, xmax 6.65768e-18 1.30001 3.6m 
gts area: 163.395 
yplus max: 130.971, yplus min: 0.0214027 
position of yplus max: -12.0211 1.28998 2.0049 
yplus prom: 2.95734 
forces: 3120.115121 -0.103698 -882.558989 
Drag coefficient: 0.870776 
torque (ref. CG): 0.145177 (roll) -1015.448664 (pitch) 0.632555 (yaw) 
----------------------------------------------------- 
step 49, time 0.024500, maxvel 30.000000, total vol 183256, vol(u>maxvel) 7.64693, cell count 1524745
bounding box (containing cells with vel>maxvel): xmin -12.2891 -1.77157 -0.502475, xmax 0.419478 1.77141 4.02918m 
bounding box of vehicle: xmin -12.2 -1.3 -6.44084e-18, xmax 6.65768e-18 1.30001 3.6m 
gts area: 163.395 
yplus max: 130.961, yplus min: 0.0372253 
position of yplus max: -12.0211 1.28998 2.0049 
yplus prom: 2.95809 
forces: 3113.522095 -0.103222 -882.162608 
Drag coefficient: 0.868936 
torque (ref. CG): 0.144511 (roll) -1022.260974 (pitch) 0.629655 (yaw) 
----------------------------------------------------- 
step 50, time 0.025000, maxvel 30.000000, total vol 183256, vol(u>maxvel) 7.61588, cell count 1518238
bounding box (containing cells with vel>maxvel): xmin -12.2891 -1.77157 -0.502904, xmax 0.419478 1.77141 4.02917m 
bounding box of vehicle: xmin -12.2 -1.3 -6.44084e-18, xmax 6.65768e-18 1.30001 3.6m 
gts area: 163.395 
yplus max: 130.951, yplus min: 0.0190121 
position of yplus max: -12.0211 1.28998 2.0049 
yplus prom: 2.95877 
forces: 3106.943382 -0.096928 -881.779025 
Drag coefficient: 0.867100 
torque (ref. CG): 0.135700 (roll) -1029.131318 (pitch) 0.591264 (yaw) 
----------------------------------------------------- 
step 51, time 0.025500, maxvel 30.000000, total vol 183256, vol(u>maxvel) 7.60477, cell count 1511703
bounding box (containing cells with vel>maxvel): xmin -12.289 -1.77147 -0.502904, xmax 0.42116 1.77137 4.02917m 
bounding box of vehicle: xmin -12.2 -1.3 -6.44084e-18, xmax 6.65768e-18 1.30001 3.6m 
gts area: 163.395 
yplus max: 130.941, yplus min: 0.033258 
position of yplus max: -12.0211 1.28998 2.0049 
yplus prom: 2.95936 
forces: 3100.385025 -0.092400 -881.400708 
Drag coefficient: 0.865270 
torque (ref. CG): 0.129360 (roll) -1036.005281 (pitch) 0.563641 (yaw) 
----------------------------------------------------- 
step 52, time 0.026000, maxvel 30.000000, total vol 183256, vol(u>maxvel) 7.59439, cell count 1505203
bounding box (containing cells with vel>maxvel): xmin -12.289 -1.77147 -0.502904, xmax 0.493488 1.77137 4.02917m 
bounding box of vehicle: xmin -12.2 -1.3 -6.44084e-18, xmax 6.65768e-18 1.30001 3.6m 
gts area: 163.395 
yplus max: 130.93, yplus min: 0.0347833 
position of yplus max: -12.0211 1.28998 2.0049 
yplus prom: 2.95989 
forces: 3093.755894 -0.091525 -881.029342 
Drag coefficient: 0.863420 
torque (ref. CG): 0.128135 (roll) -1043.020734 (pitch) 0.558302 (yaw) 
----------------------------------------------------- 
step 53, time 0.026500, maxvel 30.000000, total vol 183256, vol(u>maxvel) 7.57938, cell count 1497752
bounding box (containing cells with vel>maxvel): xmin -12.289 -1.77138 -0.502904, xmax 0.493934 1.77133 4.02917m 
bounding box of vehicle: xmin -12.2 -1.3 -6.44084e-18, xmax 6.65768e-18 1.30001 3.6m 
gts area: 163.395 
yplus max: 130.919, yplus min: 0.0124744 
position of yplus max: -12.0211 1.28998 2.0049 
yplus prom: 2.96036 
forces: 3087.039205 -0.086579 -880.641756 
Drag coefficient: 0.861545 
torque (ref. CG): 0.121211 (roll) -1050.059828 (pitch) 0.528134 (yaw) 
----------------------------------------------------- 
step 54, time 0.027000, maxvel 30.000000, total vol 183256, vol(u>maxvel) 7.55453, cell count 1491232
bounding box (containing cells with vel>maxvel): xmin -12.2621 -1.77138 -0.502904, xmax 0.49399 1.77133 4.02611m 
bounding box of vehicle: xmin -12.2 -1.3 -6.44084e-18, xmax 6.65768e-18 1.30001 3.6m 
gts area: 163.395 
yplus max: 130.909, yplus min: 0.0283736 
position of yplus max: -12.0211 1.28998 2.0049 
yplus prom: 2.96077 
forces: 3080.304341 -0.084315 -880.261294 
Drag coefficient: 0.859666 
torque (ref. CG): 0.118041 (roll) -1057.167817 (pitch) 0.514320 (yaw) 
----------------------------------------------------- 
step 55, time 0.027500, maxvel 30.000000, total vol 183256, vol(u>maxvel) 7.53467, cell count 1484240
bounding box (containing cells with vel>maxvel): xmin -12.2621 -1.77129 -0.502904, xmax 0.49399 1.77129 4.02611m 
bounding box of vehicle: xmin -12.2 -1.3 -6.44084e-18, xmax 6.65768e-18 1.30001 3.6m 
gts area: 163.395 
yplus max: 130.898, yplus min: 0.0351852 
position of yplus max: -12.0211 1.28998 2.0049 
yplus prom: 2.96112 
forces: 3073.533223 -0.080934 -879.880438 
Drag coefficient: 0.857776 
torque (ref. CG): 0.113308 (roll) -1064.324161 (pitch) 0.493697 (yaw) 
----------------------------------------------------- 
step 56, time 0.028000, maxvel 30.000000, total vol 183256, vol(u>maxvel) 7.50965, cell count 1476878
bounding box (containing cells with vel>maxvel): xmin -12.2621 -1.77129 -0.502904, xmax 0.49399 1.77129 4.02611m 
bounding box of vehicle: xmin -12.2 -1.3 -6.44084e-18, xmax 6.65768e-18 1.30001 3.6m 
gts area: 163.395 
yplus max: 130.887, yplus min: 0.0245663 
position of yplus max: -12.0211 1.28998 2.0049 
yplus prom: 2.9614 
forces: 3066.660747 -0.078874 -879.506837 
Drag coefficient: 0.855858 
torque (ref. CG): 0.110423 (roll) -1071.666660 (pitch) 0.481129 (yaw) 
----------------------------------------------------- 
step 57, time 0.028500, maxvel 30.000000, total vol 183256, vol(u>maxvel) 7.49041, cell count 1469681
bounding box (containing cells with vel>maxvel): xmin -12.2621 -1.77121 -0.502904, xmax 0.49399 1.77123 4.02611m 
bounding box of vehicle: xmin -12.2 -1.3 -6.44084e-18, xmax 6.65768e-18 1.30001 3.6m 
gts area: 163.395 
yplus max: 130.876, yplus min: 0.0108105 
position of yplus max: -12.0211 1.28998 2.0049 
yplus prom: 2.96161 
forces: 3059.728470 -0.075972 -879.135548 
Drag coefficient: 0.853923 
torque (ref. CG): 0.106361 (roll) -1079.106984 (pitch) 0.463429 (yaw) 
----------------------------------------------------- 
step 58, time 0.029000, maxvel 30.000000, total vol 183256, vol(u>maxvel) 7.46416, cell count 1462254
bounding box (containing cells with vel>maxvel): xmin -12.2621 -1.77112 -0.503235, xmax 0.49399 1.77115 4.0261m 
bounding box of vehicle: xmin -12.2 -1.3 -6.44084e-18, xmax 6.65768e-18 1.30001 3.6m 
gts area: 163.395 
yplus max: 130.865, yplus min: 0.0108609 
position of yplus max: -12.0211 1.28998 2.0049 
yplus prom: 2.96176 
forces: 3052.712653 -0.074351 -878.770464 
Drag coefficient: 0.851965 
torque (ref. CG): 0.104091 (roll) -1086.702114 (pitch) 0.453541 (yaw) 
----------------------------------------------------- 
step 59, time 0.029500, maxvel 30.000000, total vol 183256, vol(u>maxvel) 7.44021, cell count 1454049
bounding box (containing cells with vel>maxvel): xmin -12.2621 -1.77102 -0.503235, xmax 0.494191 1.77103 4.0261m 
bounding box of vehicle: xmin -12.2 -1.3 -6.44084e-18, xmax 6.65768e-18 1.30001 3.6m 
gts area: 163.395 
yplus max: 130.854, yplus min: 0.021218 
position of yplus max: -12.0211 1.28998 2.0049 
yplus prom: 2.96186 
forces: 3045.605319 -0.069919 -878.396280 
Drag coefficient: 0.849982 
torque (ref. CG): 0.097886 (roll) -1094.369862 (pitch) 0.426504 (yaw) 
----------------------------------------------------- 
step 60, time 0.030000, maxvel 30.000000, total vol 183256, vol(u>maxvel) 7.40439, cell count 1446816
bounding box (containing cells with vel>maxvel): xmin -12.2621 -1.77082 -0.503235, xmax 0.494191 1.77078 4.0261m 
bounding box of vehicle: xmin -12.2 -1.3 -6.44084e-18, xmax 6.65768e-18 1.30001 3.6m 
gts area: 163.395 
yplus max: 130.843, yplus min: 0.0259369 
position of yplus max: -12.0211 1.28998 2.0049 
yplus prom: 2.9619 
forces: 3038.454865 -0.071651 -877.989623 
Drag coefficient: 0.847986 
torque (ref. CG): 0.100311 (roll) -1101.899886 (pitch) 0.437069 (yaw) 
----------------------------------------------------- 
step 61, time 0.030500, maxvel 30.000000, total vol 183256, vol(u>maxvel) 7.37246, cell count 1438919
bounding box (containing cells with vel>maxvel): xmin -12.2621 -1.77037 -0.503235, xmax 0.494231 1.77028 4.02425m 
bounding box of vehicle: xmin -12.2 -1.3 -6.44084e-18, xmax 6.65768e-18 1.30001 3.6m 
gts area: 163.395 
yplus max: 130.832, yplus min: 0.0220626 
position of yplus max: -12.0211 1.28998 2.0049 
yplus prom: 2.9619 
forces: 3031.224190 -0.065597 -877.632092 
Drag coefficient: 0.845968 
torque (ref. CG): 0.091836 (roll) -1109.841897 (pitch) 0.400141 (yaw) 
----------------------------------------------------- 
step 62, time 0.031000, maxvel 30.000000, total vol 183256, vol(u>maxvel) 7.34235, cell count 1430281
bounding box (containing cells with vel>maxvel): xmin -12.2621 -1.77021 -0.503235, xmax 0.49431 1.77028 4.02424m 
bounding box of vehicle: xmin -12.2 -1.3 -6.44084e-18, xmax 6.65768e-18 1.30001 3.6m 
gts area: 163.395 
yplus max: 130.822, yplus min: 0.00787498 
position of yplus max: -12.0211 1.28998 2.0049 
yplus prom: 2.96186 
forces: 3023.900630 -0.064507 -877.259651 
Drag coefficient: 0.843924 
torque (ref. CG): 0.090310 (roll) -1117.822991 (pitch) 0.393495 (yaw) 
----------------------------------------------------- 
step 63, time 0.031500, maxvel 30.000000, total vol 183256, vol(u>maxvel) 7.3153, cell count 1422510
bounding box (containing cells with vel>maxvel): xmin -12.2621 -1.77021 -0.503235, xmax 0.494311 1.77028 3.95614m 
bounding box of vehicle: xmin -12.2 -1.3 -6.44084e-18, xmax 6.65768e-18 1.30001 3.6m 
gts area: 163.395 
yplus max: 130.811, yplus min: 0.0296238 
position of yplus max: -12.0211 1.28998 2.0049 
yplus prom: 2.96178 
forces: 3016.561654 -0.062023 -876.912094 
Drag coefficient: 0.841876 
torque (ref. CG): 0.086833 (roll) -1125.977457 (pitch) 0.378343 (yaw) 
----------------------------------------------------- 
step 64, time 0.032000, maxvel 30.000000, total vol 183256, vol(u>maxvel) 7.29709, cell count 1414446
bounding box (containing cells with vel>maxvel): xmin -12.2621 -1.77021 -0.503235, xmax 0.494312 1.77028 3.95614m 
bounding box of vehicle: xmin -12.2 -1.3 -6.44084e-18, xmax 6.65768e-18 1.30001 3.6m 
gts area: 163.395 
yplus max: 130.801, yplus min: 0.0163624 
position of yplus max: -12.0211 1.28998 2.0049 
yplus prom: 2.96166 
forces: 3009.210255 -0.058807 -876.571382 
Drag coefficient: 0.839825 
torque (ref. CG): 0.082329 (roll) -1134.191075 (pitch) 0.358720 (yaw) 
----------------------------------------------------- 
step 65, time 0.032500, maxvel 30.000000, total vol 183256, vol(u>maxvel) 7.28299, cell count 1406183
bounding box (containing cells with vel>maxvel): xmin -12.2621 -1.77021 -0.503235, xmax 0.495462 1.77028 3.95614m 
bounding box of vehicle: xmin -12.2 -1.3 -6.44084e-18, xmax 6.65768e-18 1.30001 3.6m 
gts area: 163.395 
yplus max: 130.791, yplus min: 0.0281395 
position of yplus max: -12.0211 1.28998 2.0049 
yplus prom: 2.96151 
forces: 3001.776149 -0.059288 -876.252762 
Drag coefficient: 0.837750 
torque (ref. CG): 0.083003 (roll) -1142.655238 (pitch) 0.361658 (yaw) 
----------------------------------------------------- 
step 66, time 0.033000, maxvel 30.000000, total vol 183256, vol(u>maxvel) 7.27647, cell count 1397444
bounding box (containing cells with vel>maxvel): xmin -12.2621 -1.77021 -0.503235, xmax 0.495671 1.77027 3.95614m 
bounding box of vehicle: xmin -12.2 -1.3 -6.44084e-18, xmax 6.65768e-18 1.30001 3.6m 
gts area: 163.395 
yplus max: 130.781, yplus min: 0.0286938 
position of yplus max: -12.0211 1.28998 2.0049 
yplus prom: 2.96133 
forces: 2994.272662 -0.057055 -875.941278 
Drag coefficient: 0.835656 
torque (ref. CG): 0.079877 (roll) -1151.260069 (pitch) 0.348037 (yaw) 
----------------------------------------------------- 
step 67, time 0.033500, maxvel 30.000000, total vol 183256, vol(u>maxvel) 7.26026, cell count 1389189
bounding box (containing cells with vel>maxvel): xmin -12.2621 -1.77021 -0.503235, xmax 0.568204 1.77027 3.95614m 
bounding box of vehicle: xmin -12.2 -1.3 -6.44084e-18, xmax 6.65768e-18 1.30001 3.6m 
gts area: 163.395 
yplus max: 130.771, yplus min: 0.0298845 
position of yplus max: -12.0211 1.28998 2.0049 
yplus prom: 2.96113 
forces: 2986.738013 -0.054639 -875.595554 
Drag coefficient: 0.833553 
torque (ref. CG): 0.076495 (roll) -1159.699660 (pitch) 0.333299 (yaw) 
----------------------------------------------------- 
step 68, time 0.034000, maxvel 30.000000, total vol 183256, vol(u>maxvel) 7.2487, cell count 1381011
bounding box (containing cells with vel>maxvel): xmin -12.2621 -1.77021 -0.503235, xmax 0.568351 1.77027 3.95613m 
bounding box of vehicle: xmin -12.2 -1.3 -6.44084e-18, xmax 6.65768e-18 1.30001 3.6m 
gts area: 163.395 
yplus max: 130.762, yplus min: 0.0308917 
position of yplus max: -12.0211 1.28998 2.0049 
yplus prom: 2.96089 
forces: 2979.157510 -0.053741 -875.293923 
Drag coefficient: 0.831437 
torque (ref. CG): 0.075237 (roll) -1168.472416 (pitch) 0.327817 (yaw) 
----------------------------------------------------- 
step 69, time 0.034500, maxvel 30.000000, total vol 183256, vol(u>maxvel) 7.22742, cell count 1372408
bounding box (containing cells with vel>maxvel): xmin -12.2621 -1.77004 -0.503235, xmax 0.568654 1.77015 3.95381m 
bounding box of vehicle: xmin -12.2 -1.3 -6.44084e-18, xmax 6.65768e-18 1.30001 3.6m 
gts area: 163.395 
yplus max: 130.752, yplus min: 0.0305619 
position of yplus max: -12.0211 1.28998 2.0049 
yplus prom: 2.96062 
forces: 2971.519917 -0.051704 -875.031429 
Drag coefficient: 0.829306 
torque (ref. CG): 0.072386 (roll) -1177.563832 (pitch) 0.315397 (yaw) 
----------------------------------------------------- 
step 70, time 0.035000, maxvel 30.000000, total vol 183256, vol(u>maxvel) 7.20458, cell count 1364373
bounding box (containing cells with vel>maxvel): xmin -12.2621 -1.77004 -0.503235, xmax 0.568716 1.77014 3.95381m 
bounding box of vehicle: xmin -12.2 -1.3 -6.44084e-18, xmax 6.65768e-18 1.30001 3.6m 
gts area: 163.395 
yplus max: 130.743, yplus min: 0.0302321 
position of yplus max: -12.0211 1.28998 2.0049 
yplus prom: 2.96031 
forces: 2964.070097 -0.049969 -874.750001 
Drag coefficient: 0.827227 
torque (ref. CG): 0.069956 (roll) -1186.276869 (pitch) 0.304809 (yaw) 
----------------------------------------------------- 
step 71, time 0.035500, maxvel 30.000000, total vol 183256, vol(u>maxvel) 7.18401, cell count 1356076
bounding box (containing cells with vel>maxvel): xmin -12.2621 -1.77004 -0.503235, xmax 0.568716 1.77014 3.95381m 
bounding box of vehicle: xmin -12.2 -1.3 -6.44084e-18, xmax 6.65768e-18 1.30001 3.6m 
gts area: 163.395 
yplus max: 130.734, yplus min: 0.0299026 
position of yplus max: -12.0211 1.28998 2.0049 
yplus prom: 2.95995 
forces: 2956.756906 -0.047295 -874.508667 
Drag coefficient: 0.825186 
torque (ref. CG): 0.066212 (roll) -1195.043203 (pitch) 0.288497 (yaw) 
----------------------------------------------------- 
step 72, time 0.036000, maxvel 30.000000, total vol 183256, vol(u>maxvel) 7.16649, cell count 1347291
bounding box (containing cells with vel>maxvel): xmin -12.2621 -1.77004 -0.503235, xmax 0.568716 1.77014 3.95381m 
bounding box of vehicle: xmin -12.2 -1.3 -6.44084e-18, xmax 6.65768e-18 1.30001 3.6m 
gts area: 163.395 
yplus max: 130.725, yplus min: 0.0280662 
position of yplus max: -12.0211 1.28998 2.0049 
yplus prom: 2.95957 
forces: 2949.375183 -0.045968 -874.170095 
Drag coefficient: 0.823126 
torque (ref. CG): 0.064356 (roll) -1203.312321 (pitch) 0.280408 (yaw) 
----------------------------------------------------- 
step 73, time 0.036500, maxvel 30.000000, total vol 183256, vol(u>maxvel) 7.13078, cell count 1339075
bounding box (containing cells with vel>maxvel): xmin -12.2621 -1.77004 -0.503235, xmax 0.568716 1.77014 3.95381m 
bounding box of vehicle: xmin -12.2 -1.3 -6.44084e-18, xmax 6.65768e-18 1.30001 3.6m 
gts area: 163.395 
yplus max: 130.717, yplus min: 0.0283924 
position of yplus max: -12.0211 1.28998 2.0049 
yplus prom: 2.95915 
forces: 2942.028862 -0.044567 -873.989123 
Drag coefficient: 0.821075 
torque (ref. CG): 0.062394 (roll) -1212.493241 (pitch) 0.271861 (yaw) 
----------------------------------------------------- 
step 74, time 0.037000, maxvel 30.000000, total vol 183256, vol(u>maxvel) 7.11693, cell count 1331065
bounding box (containing cells with vel>maxvel): xmin -12.2621 -1.77004 -0.503235, xmax 0.568716 1.77 3.95381m 
bounding box of vehicle: xmin -12.2 -1.3 -6.44084e-18, xmax 6.65768e-18 1.30001 3.6m 
gts area: 163.395 
yplus max: 130.708, yplus min: 0.0289169 
position of yplus max: -12.0211 1.28998 2.0049 
yplus prom: 2.95871 
forces: 2934.807677 -0.043560 -873.720286 
Drag coefficient: 0.819060 
torque (ref. CG): 0.060984 (roll) -1220.962994 (pitch) 0.265715 (yaw) 
----------------------------------------------------- 
step 75, time 0.037500, maxvel 30.000000, total vol 183256, vol(u>maxvel) 7.10082, cell count 1322947
bounding box (containing cells with vel>maxvel): xmin -12.2621 -1.76987 -0.503235, xmax 0.568716 1.77 3.95381m 
bounding box of vehicle: xmin -12.2 -1.3 -6.44084e-18, xmax 6.65768e-18 1.30001 3.6m 
gts area: 163.395 
yplus max: 130.7, yplus min: 0.0285896 
position of yplus max: -12.0211 1.28998 2.0049 
yplus prom: 2.95825 
forces: 2927.734110 -0.042053 -873.609560 
Drag coefficient: 0.817086 
torque (ref. CG): 0.058874 (roll) -1230.190563 (pitch) 0.256521 (yaw) 
----------------------------------------------------- 
step 76, time 0.038000, maxvel 30.000000, total vol 183256, vol(u>maxvel) 7.07525, cell count 1315275
bounding box (containing cells with vel>maxvel): xmin -12.2621 -1.76987 -0.503235, xmax 0.568716 1.77 3.95381m 
bounding box of vehicle: xmin -12.2 -1.3 -6.44084e-18, xmax 6.65768e-18 1.30001 3.6m 
gts area: 163.395 
yplus max: 130.692, yplus min: 0.0282634 
position of yplus max: -12.0211 1.28998 2.0049 
yplus prom: 2.95777 
forces: 2920.685147 -0.038134 -873.317959 
Drag coefficient: 0.815119 
torque (ref. CG): 0.053388 (roll) -1238.280343 (pitch) 0.232618 (yaw) 
----------------------------------------------------- 
step 77, time 0.038500, maxvel 30.000000, total vol 183256, vol(u>maxvel) 7.0586, cell count 1307475
bounding box (containing cells with vel>maxvel): xmin -12.2621 -1.76987 -0.503235, xmax 0.568716 1.76578 3.95381m 
bounding box of vehicle: xmin -12.2 -1.3 -6.44084e-18, xmax 6.65768e-18 1.30001 3.6m 
gts area: 163.395 
yplus max: 130.684, yplus min: 0.027938 
position of yplus max: -12.0211 1.28998 2.0049 
yplus prom: 2.95726 
forces: 2913.610547 -0.039956 -873.144425 
Drag coefficient: 0.813144 
torque (ref. CG): 0.055938 (roll) -1247.126227 (pitch) 0.243729 (yaw) 
----------------------------------------------------- 
step 78, time 0.039000, maxvel 30.000000, total vol 183256, vol(u>maxvel) 7.03361, cell count 1299598
bounding box (containing cells with vel>maxvel): xmin -12.2621 -1.76575 -0.503235, xmax 0.568966 1.76573 3.95381m 
bounding box of vehicle: xmin -12.2 -1.3 -6.44084e-18, xmax 6.65768e-18 1.30001 3.6m 
gts area: 163.395 
yplus max: 130.677, yplus min: 0.0276149 
position of yplus max: -12.0211 1.28998 2.0049 
yplus prom: 2.95674 
forces: 2906.510645 -0.033216 -872.846612 
Drag coefficient: 0.811163 
torque (ref. CG): 0.046503 (roll) -1255.249428 (pitch) 0.202618 (yaw) 
----------------------------------------------------- 
step 79, time 0.039500, maxvel 30.000000, total vol 183256, vol(u>maxvel) 7.00402, cell count 1291813
bounding box (containing cells with vel>maxvel): xmin -12.2621 -1.76571 -0.503235, xmax 0.568966 1.76573 3.95381m 
bounding box of vehicle: xmin -12.2 -1.3 -6.44084e-18, xmax 6.65768e-18 1.30001 3.6m 
gts area: 163.395 
yplus max: 130.669, yplus min: 0.0259617 
position of yplus max: -12.0211 1.28998 2.0049 
yplus prom: 2.95621 
forces: 2899.382635 -0.038989 -872.696026 
Drag coefficient: 0.809173 
torque (ref. CG): 0.054584 (roll) -1264.310072 (pitch) 0.237830 (yaw) 
----------------------------------------------------- 
step 80, time 0.040000, maxvel 30.000000, total vol 183256, vol(u>maxvel) 6.97287, cell count 1284791
bounding box (containing cells with vel>maxvel): xmin -12.2621 -1.76563 -0.503235, xmax 0.568966 1.76563 3.95381m 
bounding box of vehicle: xmin -12.2 -1.3 -6.44084e-18, xmax 6.65768e-18 1.30001 3.6m 
gts area: 163.395 
yplus max: 130.662, yplus min: 0.026974 
position of yplus max: -12.0211 1.28998 2.0049 
yplus prom: 2.95566 
forces: 2892.316567 -0.032629 -872.425574 
Drag coefficient: 0.807201 
torque (ref. CG): 0.045680 (roll) -1272.552808 (pitch) 0.199036 (yaw) 
----------------------------------------------------- 
step 81, time 0.040500, maxvel 30.000000, total vol 183256, vol(u>maxvel) 6.94946, cell count 1277735
bounding box (containing cells with vel>maxvel): xmin -12.2621 -1.69637 -0.503235, xmax 0.56915 1.69641 3.95381m 
bounding box of vehicle: xmin -12.2 -1.3 -6.44084e-18, xmax 6.65768e-18 1.30001 3.6m 
gts area: 163.395 
yplus max: 130.655, yplus min: 0.0266562 
position of yplus max: -12.0211 1.28998 2.0049 
yplus prom: 2.9551 
forces: 2885.305389 -0.036436 -872.255456 
Drag coefficient: 0.805245 
torque (ref. CG): 0.051010 (roll) -1281.330737 (pitch) 0.222257 (yaw) 
----------------------------------------------------- 
step 82, time 0.041000, maxvel 30.000000, total vol 183256, vol(u>maxvel) 6.93907, cell count 1270797
bounding box (containing cells with vel>maxvel): xmin -12.2621 -1.69637 -0.503235, xmax 0.642734 1.69641 3.95381m 
bounding box of vehicle: xmin -12.2 -1.3 -6.44084e-18, xmax 6.65768e-18 1.30001 3.6m 
gts area: 163.395 
yplus max: 130.648, yplus min: 0.0263439 
position of yplus max: -12.0211 1.28998 2.0049 
yplus prom: 2.95452 
forces: 2878.357857 -0.030031 -871.977267 
Drag coefficient: 0.803306 
torque (ref. CG): 0.042044 (roll) -1289.360329 (pitch) 0.183191 (yaw) 
----------------------------------------------------- 
step 83, time 0.041500, maxvel 30.000000, total vol 183256, vol(u>maxvel) 6.92576, cell count 1263832
bounding box (containing cells with vel>maxvel): xmin -12.2621 -1.69637 -0.503235, xmax 0.642911 1.69641 3.9538m 
bounding box of vehicle: xmin -12.2 -1.3 -6.44084e-18, xmax 6.65768e-18 1.30001 3.6m 
gts area: 163.395 
yplus max: 130.641, yplus min: 0.026033 
position of yplus max: -12.0211 1.28998 2.0049 
yplus prom: 2.95392 
forces: 2871.453827 -0.033289 -871.788828 
Drag coefficient: 0.801379 
torque (ref. CG): 0.046604 (roll) -1297.876491 (pitch) 0.203062 (yaw) 
----------------------------------------------------- 
step 84, time 0.042000, maxvel 30.000000, total vol 183256, vol(u>maxvel) 6.90729, cell count 1256451
bounding box (containing cells with vel>maxvel): xmin -12.2621 -1.69637 -0.503235, xmax 0.643071 1.69641 3.95379m 
bounding box of vehicle: xmin -12.2 -1.3 -6.44084e-18, xmax 6.65768e-18 1.30001 3.6m 
gts area: 163.395 
yplus max: 130.635, yplus min: 0.0257291 
position of yplus max: -12.0211 1.28998 2.0049 
yplus prom: 2.9533 
forces: 2864.641379 -0.028232 -871.492263 
Drag coefficient: 0.799478 
torque (ref. CG): 0.039525 (roll) -1305.604874 (pitch) 0.172218 (yaw) 
----------------------------------------------------- 
step 85, time 0.042500, maxvel 30.000000, total vol 183256, vol(u>maxvel) 6.89722, cell count 1249182
bounding box (containing cells with vel>maxvel): xmin -12.2621 -1.69637 -0.503235, xmax 0.643369 1.69641 3.95379m 
bounding box of vehicle: xmin -12.2 -1.3 -6.44084e-18, xmax 6.65768e-18 1.30001 3.6m 
gts area: 163.395 
yplus max: 130.628, yplus min: 0.0254279 
position of yplus max: -12.0211 1.28998 2.0049 
yplus prom: 2.95267 
forces: 2857.964306 -0.030957 -871.271266 
Drag coefficient: 0.797614 
torque (ref. CG): 0.043340 (roll) -1313.604696 (pitch) 0.188839 (yaw) 
----------------------------------------------------- 
step 86, time 0.043000, maxvel 30.000000, total vol 183256, vol(u>maxvel) 6.88134, cell count 1242327
bounding box (containing cells with vel>maxvel): xmin -12.2621 -1.69637 -0.503235, xmax 0.643369 1.69641 3.95378m 
bounding box of vehicle: xmin -12.2 -1.3 -6.44084e-18, xmax 6.65768e-18 1.30001 3.6m 
gts area: 163.395 
yplus max: 130.622, yplus min: 0.0251351 
position of yplus max: -12.0211 1.28998 2.0049 
yplus prom: 2.95202 
forces: 2851.417425 -0.025028 -870.940122 
Drag coefficient: 0.795787 
torque (ref. CG): 0.035039 (roll) -1320.750348 (pitch) 0.152669 (yaw) 
----------------------------------------------------- 
step 87, time 0.043500, maxvel 30.000000, total vol 183256, vol(u>maxvel) 6.86134, cell count 1235101
bounding box (containing cells with vel>maxvel): xmin -12.2621 -1.69637 -0.503235, xmax 0.643439 1.69641 3.95378m 
bounding box of vehicle: xmin -12.2 -1.3 -6.44084e-18, xmax 6.65768e-18 1.30001 3.6m 
gts area: 163.395 
yplus max: 130.616, yplus min: 0.0248469 
position of yplus max: -12.0211 1.28998 2.0049 
yplus prom: 2.95136 
forces: 2844.931405 -0.027555 -870.696250 
Drag coefficient: 0.793977 
torque (ref. CG): 0.038577 (roll) -1328.343161 (pitch) 0.168087 (yaw) 
----------------------------------------------------- 
step 88, time 0.044000, maxvel 30.000000, total vol 183256, vol(u>maxvel) 6.84591, cell count 1227942
bounding box (containing cells with vel>maxvel): xmin -12.2621 -1.69637 -0.503235, xmax 0.643439 1.69641 3.95378m 
bounding box of vehicle: xmin -12.2 -1.3 -6.44084e-18, xmax 6.65768e-18 1.30001 3.6m 
gts area: 163.395 
yplus max: 130.61, yplus min: 0.0245689 
position of yplus max: -12.0211 1.28998 2.0049 
yplus prom: 2.95069 
forces: 2838.475330 -0.022103 -870.345093 
Drag coefficient: 0.792175 
torque (ref. CG): 0.030944 (roll) -1335.239604 (pitch) 0.134827 (yaw) 
----------------------------------------------------- 
step 89, time 0.044500, maxvel 30.000000, total vol 183256, vol(u>maxvel) 6.81807, cell count 1220563
bounding box (containing cells with vel>maxvel): xmin -12.2621 -1.69637 -0.503235, xmax 0.643439 1.69641 3.95377m 
bounding box of vehicle: xmin -12.2 -1.3 -6.44084e-18, xmax 6.65768e-18 1.30001 3.6m 
gts area: 163.395 
yplus max: 130.604, yplus min: 0.0242974 
position of yplus max: -12.0211 1.28998 2.0049 
yplus prom: 2.95 
forces: 2832.052063 -0.025267 -870.087161 
Drag coefficient: 0.790382 
torque (ref. CG): 0.035374 (roll) -1342.658797 (pitch) 0.154130 (yaw) 
----------------------------------------------------- 
step 90, time 0.045000, maxvel 30.000000, total vol 183256, vol(u>maxvel) 6.80424, cell count 1213558
bounding box (containing cells with vel>maxvel): xmin -12.2621 -1.69637 -0.503235, xmax 0.643439 1.69641 3.95377m 
bounding box of vehicle: xmin -12.2 -1.3 -6.44084e-18, xmax 6.65768e-18 1.30001 3.6m 
gts area: 163.395 
yplus max: 130.599, yplus min: 0.0240386 
position of yplus max: -12.0211 1.28998 2.0049 
yplus prom: 2.9493 
forces: 2825.696461 -0.020133 -869.721242 
Drag coefficient: 0.788609 
torque (ref. CG): 0.028186 (roll) -1349.324532 (pitch) 0.122811 (yaw) 
----------------------------------------------------- 
step 91, time 0.045500, maxvel 30.000000, total vol 183256, vol(u>maxvel) 6.77326, cell count 1206554
bounding box (containing cells with vel>maxvel): xmin -12.2621 -1.69637 -0.503235, xmax 0.643439 1.69641 3.95377m 
bounding box of vehicle: xmin -12.2 -1.3 -6.44084e-18, xmax 6.65768e-18 1.30001 3.6m 
gts area: 163.395 
yplus max: 130.593, yplus min: 0.0237886 
position of yplus max: -12.0211 1.28998 2.0049 
yplus prom: 2.94859 
forces: 2819.420247 -0.023468 -869.450509 
Drag coefficient: 0.786857 
torque (ref. CG): 0.032856 (roll) -1356.459756 (pitch) 0.143156 (yaw) 
----------------------------------------------------- 
step 92, time 0.046000, maxvel 30.000000, total vol 183256, vol(u>maxvel) 6.74668, cell count 1199542
bounding box (containing cells with vel>maxvel): xmin -12.2621 -1.69637 -0.503235, xmax 0.643439 1.69641 3.95377m 
bounding box of vehicle: xmin -12.2 -1.3 -6.44084e-18, xmax 6.65768e-18 1.30001 3.6m 
gts area: 163.395 
yplus max: 130.588, yplus min: 0.0235538 
position of yplus max: -12.0211 1.28998 2.0049 
yplus prom: 2.94787 
forces: 2813.233697 -0.017909 -869.048261 
Drag coefficient: 0.785131 
torque (ref. CG): 0.025073 (roll) -1362.667214 (pitch) 0.109245 (yaw) 
----------------------------------------------------- 
step 93, time 0.046500, maxvel 30.000000, total vol 183256, vol(u>maxvel) 6.72249, cell count 1191635
bounding box (containing cells with vel>maxvel): xmin -12.2621 -1.69637 -0.503235, xmax 0.643439 1.69641 3.9506m 
bounding box of vehicle: xmin -12.2 -1.3 -6.44084e-18, xmax 6.65768e-18 1.30001 3.6m 
gts area: 163.395 
yplus max: 130.583, yplus min: 0.0233306 
position of yplus max: -12.0211 1.28998 2.0049 
yplus prom: 2.94714 
forces: 2807.127768 -0.021105 -868.757903 
Drag coefficient: 0.783426 
torque (ref. CG): 0.029546 (roll) -1369.444335 (pitch) 0.128738 (yaw) 
----------------------------------------------------- 
step 94, time 0.047000, maxvel 30.000000, total vol 183256, vol(u>maxvel) 6.6957, cell count 1183439
bounding box (containing cells with vel>maxvel): xmin -12.2621 -1.69637 -0.503235, xmax 0.643439 1.69641 3.9506m 
bounding box of vehicle: xmin -12.2 -1.3 -6.44084e-18, xmax 6.65768e-18 1.30001 3.6m 
gts area: 163.395 
yplus max: 130.577, yplus min: 0.023125 
position of yplus max: -12.0211 1.28998 2.0049 
yplus prom: 2.94641 
forces: 2801.090766 -0.016181 -868.340034 
Drag coefficient: 0.781742 
torque (ref. CG): 0.022654 (roll) -1375.347135 (pitch) 0.098705 (yaw) 
----------------------------------------------------- 
step 95, time 0.047500, maxvel 30.000000, total vol 183256, vol(u>maxvel) 6.6763, cell count 1175625
bounding box (containing cells with vel>maxvel): xmin -12.2621 -1.69637 -0.503235, xmax 0.643439 1.69641 3.9506m 
bounding box of vehicle: xmin -12.2 -1.3 -6.44084e-18, xmax 6.65768e-18 1.30001 3.6m 
gts area: 163.395 
yplus max: 130.573, yplus min: 0.0229345 
position of yplus max: -12.0211 1.28998 2.0049 
yplus prom: 2.94567 
forces: 2795.079636 -0.019208 -868.038735 
Drag coefficient: 0.780064 
torque (ref. CG): 0.026891 (roll) -1381.924793 (pitch) 0.117168 (yaw) 
----------------------------------------------------- 
step 96, time 0.048000, maxvel 30.000000, total vol 183256, vol(u>maxvel) 6.65327, cell count 1166470
bounding box (containing cells with vel>maxvel): xmin -12.2621 -1.69637 -0.503235, xmax 0.643444 1.69641 3.9506m 
bounding box of vehicle: xmin -12.2 -1.3 -6.44084e-18, xmax 6.65768e-18 1.30001 3.6m 
gts area: 163.395 
yplus max: 130.568, yplus min: 0.0227643 
position of yplus max: -12.0211 1.28998 2.0049 
yplus prom: 2.94492 
forces: 2789.122755 -0.013619 -867.617071 
Drag coefficient: 0.778402 
torque (ref. CG): 0.019067 (roll) -1387.692275 (pitch) 0.083078 (yaw) 
----------------------------------------------------- 
step 97, time 0.048500, maxvel 30.000000, total vol 183256, vol(u>maxvel) 6.63061, cell count 1157546
bounding box (containing cells with vel>maxvel): xmin -12.2621 -1.69637 -0.503235, xmax 0.643444 1.69641 3.9506m 
bounding box of vehicle: xmin -12.2 -1.3 -6.44084e-18, xmax 6.65768e-18 1.30001 3.6m 
gts area: 163.395 
yplus max: 130.563, yplus min: 0.0226119 
position of yplus max: -12.0211 1.28998 2.0049 
yplus prom: 2.94417 
forces: 2783.197419 -0.017203 -867.325087 
Drag coefficient: 0.776748 
torque (ref. CG): 0.024084 (roll) -1394.206647 (pitch) 0.104937 (yaw) 
----------------------------------------------------- 
step 98, time 0.049000, maxvel 30.000000, total vol 183256, vol(u>maxvel) 6.61801, cell count 1148802
bounding box (containing cells with vel>maxvel): xmin -12.2621 -1.69637 -0.503235, xmax 0.643444 1.69641 3.9506m 
bounding box of vehicle: xmin -12.2 -1.3 -6.44084e-18, xmax 6.65768e-18 1.30001 3.6m 
gts area: 163.395 
yplus max: 130.558, yplus min: 0.0224827 
position of yplus max: -12.0211 1.28998 2.0049 
yplus prom: 2.94342 
forces: 2777.344244 -0.012802 -866.909502 
Drag coefficient: 0.775114 
torque (ref. CG): 0.017923 (roll) -1399.866022 (pitch) 0.078092 (yaw) 
----------------------------------------------------- 
step 99, time 0.049500, maxvel 30.000000, total vol 183256, vol(u>maxvel) 6.59572, cell count 1140279
bounding box (containing cells with vel>maxvel): xmin -12.2621 -1.69637 -0.503235, xmax 0.717526 1.69641 3.95059m 
bounding box of vehicle: xmin -12.2 -1.3 -6.44084e-18, xmax 6.65768e-18 1.30001 3.6m 
gts area: 163.395 
yplus max: 130.554, yplus min: 0.0223739 
position of yplus max: -12.0211 1.28998 2.0049 
yplus prom: 2.94266 
forces: 2771.536858 -0.015214 -866.610058 
Drag coefficient: 0.773494 
torque (ref. CG): 0.021300 (roll) -1406.169754 (pitch) 0.092805 (yaw) 
----------------------------------------------------- 
step 100, time 0.050000, maxvel 30.000000, total vol 183256, vol(u>maxvel) 6.5652, cell count 1132104
bounding box (containing cells with vel>maxvel): xmin -12.2621 -1.69637 -0.503235, xmax 0.71762 1.69641 3.95059m 
bounding box of vehicle: xmin -12.2 -1.3 -6.44084e-18, xmax 6.65768e-18 1.30001 3.6m 
gts area: 163.395 
yplus max: 130.549, yplus min: 0.0222905 
position of yplus max: -12.0211 1.28998 2.0049 
yplus prom: 2.94189 
forces: 2765.809632 -0.009700 -866.173080 
Drag coefficient: 0.771895 
torque (ref. CG): 0.013580 (roll) -1411.522302 (pitch) 0.059169 (yaw) 
----------------------------------------------------- 
step 101, time 0.050500, maxvel 30.000000, total vol 183256, vol(u>maxvel) 6.54827, cell count 1123959
bounding box (containing cells with vel>maxvel): xmin -12.2621 -1.69637 -0.503235, xmax 0.717708 1.69641 3.95059m 
bounding box of vehicle: xmin -12.2 -1.3 -6.44084e-18, xmax 6.65768e-18 1.30001 3.6m 
gts area: 163.395 
yplus max: 130.545, yplus min: 0.0222299 
position of yplus max: -12.0211 1.28998 2.0049 
yplus prom: 2.94113 
forces: 2760.128188 -0.014805 -865.887060 
Drag coefficient: 0.770310 
torque (ref. CG): 0.020727 (roll) -1417.731605 (pitch) 0.090312 (yaw) 
----------------------------------------------------- 
step 102, time 0.051000, maxvel 30.000000, total vol 183256, vol(u>maxvel) 6.52788, cell count 1116067
bounding box (containing cells with vel>maxvel): xmin -12.2621 -1.69637 -0.503235, xmax 0.717791 1.69641 3.95059m 
bounding box of vehicle: xmin -12.2 -1.3 -6.44084e-18, xmax 6.65768e-18 1.30001 3.6m 
gts area: 163.395 
yplus max: 130.541, yplus min: 0.0221959 
position of yplus max: -12.0211 1.28998 2.0049 
yplus prom: 2.94036 
forces: 2754.543971 -0.008345 -865.430214 
Drag coefficient: 0.768751 
torque (ref. CG): 0.011683 (roll) -1422.762743 (pitch) 0.050903 (yaw) 
----------------------------------------------------- 
step 103, time 0.051500, maxvel 30.000000, total vol 183256, vol(u>maxvel) 6.51286, cell count 1107806
bounding box (containing cells with vel>maxvel): xmin -12.2621 -1.69637 -0.503235, xmax 0.717864 1.69641 3.95058m 
bounding box of vehicle: xmin -12.2 -1.3 -6.44084e-18, xmax 6.65768e-18 1.30001 3.6m 
gts area: 163.395 
yplus max: 130.537, yplus min: 0.0221861 
position of yplus max: -12.0211 1.28998 2.0049 
yplus prom: 2.93958 
forces: 2748.981899 -0.012507 -865.099808 
Drag coefficient: 0.767199 
torque (ref. CG): 0.017510 (roll) -1428.534169 (pitch) 0.076295 (yaw) 
----------------------------------------------------- 
step 104, time 0.052000, maxvel 30.000000, total vol 183256, vol(u>maxvel) 6.48379, cell count 1100008
bounding box (containing cells with vel>maxvel): xmin -12.2621 -1.69637 -0.503235, xmax 0.718088 1.69641 3.95058m 
bounding box of vehicle: xmin -12.2 -1.3 -6.44084e-18, xmax 6.65768e-18 1.30001 3.6m 
gts area: 163.395 
yplus max: 130.533, yplus min: 0.0222039 
position of yplus max: -12.0211 1.28998 2.0049 
yplus prom: 2.9388 
forces: 2743.476286 -0.007717 -864.637186 
Drag coefficient: 0.765662 
torque (ref. CG): 0.010803 (roll) -1433.420035 (pitch) 0.047072 (yaw) 
----------------------------------------------------- 
step 105, time 0.052500, maxvel 30.000000, total vol 183256, vol(u>maxvel) 6.46213, cell count 1092498
bounding box (containing cells with vel>maxvel): xmin -12.2621 -1.69637 -0.503235, xmax 0.718163 1.69641 3.95058m 
bounding box of vehicle: xmin -12.2 -1.3 -6.44084e-18, xmax 6.65768e-18 1.30001 3.6m 
gts area: 163.395 
yplus max: 130.529, yplus min: 0.0222454 
position of yplus max: -12.0211 1.28998 2.0049 
yplus prom: 2.93802 
forces: 2737.988342 -0.011251 -864.312451 
Drag coefficient: 0.764131 
torque (ref. CG): 0.015752 (roll) -1439.122270 (pitch) 0.068634 (yaw) 
----------------------------------------------------- 
step 106, time 0.053000, maxvel 30.000000, total vol 183256, vol(u>maxvel) 6.43759, cell count 1085439
bounding box (containing cells with vel>maxvel): xmin -12.2621 -1.69637 -0.503235, xmax 0.718163 1.69641 3.95058m 
bounding box of vehicle: xmin -12.2 -1.3 -6.44084e-18, xmax 6.65768e-18 1.30001 3.6m 
gts area: 163.395 
yplus max: 130.525, yplus min: 0.0223147 
position of yplus max: -12.0211 1.28998 2.0049 
yplus prom: 2.93723 
forces: 2732.565517 -0.005854 -863.844341 
Drag coefficient: 0.762617 
torque (ref. CG): 0.008196 (roll) -1443.858758 (pitch) 0.035711 (yaw) 
----------------------------------------------------- 
step 107, time 0.053500, maxvel 30.000000, total vol 183256, vol(u>maxvel) 6.41678, cell count 1078629
bounding box (containing cells with vel>maxvel): xmin -12.2621 -1.69637 -0.503235, xmax 0.718163 1.69641 3.95058m 
bounding box of vehicle: xmin -12.2 -1.3 -6.44084e-18, xmax 6.65768e-18 1.30001 3.6m 
gts area: 163.395 
yplus max: 130.521, yplus min: 0.0224067 
position of yplus max: -12.0211 1.28998 2.0049 
yplus prom: 2.93644 
forces: 2727.160134 -0.010090 -863.521424 
Drag coefficient: 0.761109 
torque (ref. CG): 0.014126 (roll) -1449.456498 (pitch) 0.061548 (yaw) 
----------------------------------------------------- 
step 108, time 0.054000, maxvel 30.000000, total vol 183256, vol(u>maxvel) 6.38478, cell count 1072258
bounding box (containing cells with vel>maxvel): xmin -12.2621 -1.69637 -0.503235, xmax 0.718163 1.69641 3.95058m 
bounding box of vehicle: xmin -12.2 -1.3 -6.44084e-18, xmax 6.65768e-18 1.30001 3.6m 
gts area: 163.395 
yplus max: 130.517, yplus min: 0.0225225 
position of yplus max: -12.0211 1.28998 2.0049 
yplus prom: 2.93565 
forces: 2721.847323 -0.004938 -863.047748 
Drag coefficient: 0.759626 
torque (ref. CG): 0.006913 (roll) -1454.005010 (pitch) 0.030120 (yaw) 
----------------------------------------------------- 
step 109, time 0.054500, maxvel 30.000000, total vol 183256, vol(u>maxvel) 6.35567, cell count 1065494
bounding box (containing cells with vel>maxvel): xmin -12.2621 -1.69637 -0.503235, xmax 0.718163 1.69631 3.95058m 
bounding box of vehicle: xmin -12.2 -1.3 -6.44084e-18, xmax 6.65768e-18 1.30001 3.6m 
gts area: 163.395 
yplus max: 130.514, yplus min: 0.0226536 
position of yplus max: -12.0211 1.28998 2.0049 
yplus prom: 2.93485 
forces: 2716.540743 -0.008109 -862.710445 
Drag coefficient: 0.758145 
torque (ref. CG): 0.011352 (roll) -1459.376671 (pitch) 0.049464 (yaw) 
----------------------------------------------------- 
step 110, time 0.055000, maxvel 30.000000, total vol 183256, vol(u>maxvel) 6.33071, cell count 1058536
bounding box (containing cells with vel>maxvel): xmin -12.2621 -1.69637 -0.503235, xmax 0.718163 1.69631 3.95058m 
bounding box of vehicle: xmin -12.2 -1.3 -6.44084e-18, xmax 6.65768e-18 1.30001 3.6m 
gts area: 163.395 
yplus max: 130.51, yplus min: 0.0228091 
position of yplus max: -12.0211 1.28998 2.0049 
yplus prom: 2.93405 
forces: 2711.299937 -0.003729 -862.244179 
Drag coefficient: 0.756682 
torque (ref. CG): 0.005220 (roll) -1463.869579 (pitch) 0.022746 (yaw) 
----------------------------------------------------- 
step 111, time 0.055500, maxvel 30.000000, total vol 183256, vol(u>maxvel) 6.30567, cell count 1051958
bounding box (containing cells with vel>maxvel): xmin -12.2621 -1.69637 -0.503235, xmax 0.718163 1.69631 3.95058m 
bounding box of vehicle: xmin -12.2 -1.3 -6.44084e-18, xmax 6.65768e-18 1.30001 3.6m 
gts area: 163.395 
yplus max: 130.507, yplus min: 0.022984 
position of yplus max: -12.0211 1.28998 2.0049 
yplus prom: 2.93324 
forces: 2706.102743 -0.007630 -861.929768 
Drag coefficient: 0.755232 
torque (ref. CG): 0.010682 (roll) -1469.227745 (pitch) 0.046542 (yaw) 
----------------------------------------------------- 
step 112, time 0.056000, maxvel 30.000000, total vol 183256, vol(u>maxvel) 6.28233, cell count 1045359
bounding box (containing cells with vel>maxvel): xmin -12.2621 -1.69637 -0.503235, xmax 0.718163 1.69631 3.94946m 
bounding box of vehicle: xmin -12.2 -1.3 -6.44084e-18, xmax 6.65768e-18 1.30001 3.6m 
gts area: 163.395 
yplus max: 130.503, yplus min: 0.023179 
position of yplus max: -12.0211 1.28998 2.0049 
yplus prom: 2.93243 
forces: 2700.976398 -0.001970 -861.470636 
Drag coefficient: 0.753801 
torque (ref. CG): 0.002758 (roll) -1473.603924 (pitch) 0.012018 (yaw) 
----------------------------------------------------- 
step 113, time 0.056500, maxvel 30.000000, total vol 183256, vol(u>maxvel) 6.26477, cell count 1037274
bounding box (containing cells with vel>maxvel): xmin -12.2621 -1.69637 -0.503235, xmax 0.718163 1.69631 3.94946m 
bounding box of vehicle: xmin -12.2 -1.3 -6.44084e-18, xmax 6.65768e-18 1.30001 3.6m 
gts area: 163.395 
yplus max: 130.5, yplus min: 0.0233917 
position of yplus max: -12.0211 1.28998 2.0049 
yplus prom: 2.93162 
forces: 2695.874295 -0.005494 -861.153671 
Drag coefficient: 0.752377 
torque (ref. CG): 0.007692 (roll) -1478.813383 (pitch) 0.033514 (yaw) 
----------------------------------------------------- 
step 114, time 0.057000, maxvel 30.000000, total vol 183256, vol(u>maxvel) 6.23868, cell count 1030117
bounding box (containing cells with vel>maxvel): xmin -12.2621 -1.69637 -0.503235, xmax 0.718163 1.69631 3.9492m 
bounding box of vehicle: xmin -12.2 -1.3 -6.44084e-18, xmax 6.65768e-18 1.30001 3.6m 
gts area: 163.395 
yplus max: 130.497, yplus min: 0.0236221 
position of yplus max: -12.0211 1.28998 2.0049 
yplus prom: 2.9308 
forces: 2690.826786 -0.001189 -860.703044 
Drag coefficient: 0.750969 
torque (ref. CG): 0.001665 (roll) -1483.131066 (pitch) 0.007255 (yaw) 
----------------------------------------------------- 
step 115, time 0.057500, maxvel 30.000000, total vol 183256, vol(u>maxvel) 6.21319, cell count 1023340
bounding box (containing cells with vel>maxvel): xmin -12.2621 -1.69637 -0.503235, xmax 0.718163 1.69631 3.8817m 
bounding box of vehicle: xmin -12.2 -1.3 -6.44084e-18, xmax 6.65768e-18 1.30001 3.6m 
gts area: 163.395 
yplus max: 130.494, yplus min: 0.0238669 
position of yplus max: -12.0211 1.28998 2.0049 
yplus prom: 2.92997 
forces: 2685.786204 -0.005019 -860.383517 
Drag coefficient: 0.749562 
torque (ref. CG): 0.007027 (roll) -1488.238768 (pitch) 0.030616 (yaw) 
----------------------------------------------------- 
step 116, time 0.058000, maxvel 30.000000, total vol 183256, vol(u>maxvel) 6.19429, cell count 1016297
bounding box (containing cells with vel>maxvel): xmin -12.2621 -1.69637 -0.503235, xmax 0.718163 1.69631 3.8817m 
bounding box of vehicle: xmin -12.2 -1.3 -6.44084e-18, xmax 6.65768e-18 1.30001 3.6m 
gts area: 163.395 
yplus max: 130.491, yplus min: 0.0108629 
position of yplus max: -12.0211 1.28998 2.0049 
yplus prom: 2.92914 
forces: 2680.807524 -0.001626 -859.929113 
Drag coefficient: 0.748172 
torque (ref. CG): 0.002276 (roll) -1492.437055 (pitch) 0.009916 (yaw) 
----------------------------------------------------- 
step 117, time 0.058500, maxvel 30.000000, total vol 183256, vol(u>maxvel) 6.17052, cell count 1009952
bounding box (containing cells with vel>maxvel): xmin -12.2621 -1.69637 -0.503235, xmax 0.792748 1.69631 3.8817m 
bounding box of vehicle: xmin -12.2 -1.3 -6.44084e-18, xmax 6.65768e-18 1.30001 3.6m 
gts area: 163.395 
yplus max: 130.488, yplus min: 0.0243973 
position of yplus max: -12.0211 1.28998 2.0049 
yplus prom: 2.92831 
forces: 2675.850992 -0.003345 -859.580185 
Drag coefficient: 0.746789 
torque (ref. CG): 0.004683 (roll) -1497.247738 (pitch) 0.020403 (yaw) 
----------------------------------------------------- 
step 118, time 0.059000, maxvel 30.000000, total vol 183256, vol(u>maxvel) 6.14834, cell count 1004312
bounding box (containing cells with vel>maxvel): xmin -12.2621 -1.69629 -0.503235, xmax 0.792867 1.69631 3.8817m 
bounding box of vehicle: xmin -12.2 -1.3 -6.44084e-18, xmax 6.65768e-18 1.30001 3.6m 
gts area: 163.395 
yplus max: 130.485, yplus min: 0.0246816 
position of yplus max: -12.0211 1.28998 2.0049 
yplus prom: 2.92748 
forces: 2670.936518 -0.000948 -859.161662 
Drag coefficient: 0.745418 
torque (ref. CG): 0.001327 (roll) -1501.575014 (pitch) 0.005781 (yaw) 
----------------------------------------------------- 
step 119, time 0.059500, maxvel 30.000000, total vol 183256, vol(u>maxvel) 6.12278, cell count 999228
bounding box (containing cells with vel>maxvel): xmin -12.2621 -1.69629 -0.503235, xmax 0.79298 1.69631 3.8817m 
bounding box of vehicle: xmin -12.2 -1.3 -6.44084e-18, xmax 6.65768e-18 1.30001 3.6m 
gts area: 163.395 
yplus max: 130.482, yplus min: 0.0249739 
position of yplus max: -12.0211 1.28998 2.0049 
yplus prom: 2.92664 
forces: 2666.038785 -0.003857 -858.840473 
Drag coefficient: 0.744051 
torque (ref. CG): 0.005400 (roll) -1506.472585 (pitch) 0.023527 (yaw) 
----------------------------------------------------- 
step 120, time 0.060000, maxvel 30.000000, total vol 183256, vol(u>maxvel) 6.10561, cell count 994506
bounding box (containing cells with vel>maxvel): xmin -12.2621 -1.69629 -0.503235, xmax 0.793089 1.69631 3.8817m 
bounding box of vehicle: xmin -12.2 -1.3 -6.44084e-18, xmax 6.65768e-18 1.30001 3.6m 
gts area: 163.395 
yplus max: 130.479, yplus min: 0.0252765 
position of yplus max: -12.0211 1.28998 2.0049 
yplus prom: 2.9258 
forces: 2661.207348 0.000352 -858.379995 
Drag coefficient: 0.742702 
torque (ref. CG): -0.000493 (roll) -1510.427683 (pitch) -0.002147 (yaw) 
----------------------------------------------------- 
step 121, time 0.060500, maxvel 30.000000, total vol 183256, vol(u>maxvel) 6.08657, cell count 990205
bounding box (containing cells with vel>maxvel): xmin -12.2621 -1.69629 -0.503235, xmax 0.793089 1.69631 3.8817m 
bounding box of vehicle: xmin -12.2 -1.3 -6.44084e-18, xmax 6.65768e-18 1.30001 3.6m 
gts area: 163.395 
yplus max: 130.476, yplus min: 0.0255856 
position of yplus max: -12.0211 1.28998 2.0049 
yplus prom: 2.92495 
forces: 2656.404130 -0.000934 -858.024299 
Drag coefficient: 0.741362 
torque (ref. CG): 0.001307 (roll) -1514.982442 (pitch) 0.005697 (yaw) 
----------------------------------------------------- 
step 122, time 0.061000, maxvel 30.000000, total vol 183256, vol(u>maxvel) 6.06455, cell count 986375
bounding box (containing cells with vel>maxvel): xmin -12.2621 -1.69629 -0.503235, xmax 0.793191 1.69631 3.8817m 
bounding box of vehicle: xmin -12.2 -1.3 -6.44084e-18, xmax 6.65768e-18 1.30001 3.6m 
gts area: 163.395 
yplus max: 130.473, yplus min: 0.0259033 
position of yplus max: -12.0211 1.28998 2.0049 
yplus prom: 2.92411 
forces: 2651.638668 0.002539 -857.580591 
Drag coefficient: 0.740032 
torque (ref. CG): -0.003554 (roll) -1518.947473 (pitch) -0.015486 (yaw) 
----------------------------------------------------- 
step 123, time 0.061500, maxvel 30.000000, total vol 183256, vol(u>maxvel) 6.04563, cell count 982737
bounding box (containing cells with vel>maxvel): xmin -12.2621 -1.69629 -0.503235, xmax 0.793191 1.69631 3.8817m 
bounding box of vehicle: xmin -12.2 -1.3 -6.44084e-18, xmax 6.65768e-18 1.30001 3.6m 
gts area: 163.395 
yplus max: 130.47, yplus min: 0.0262251 
position of yplus max: -12.0211 1.28998 2.0049 
yplus prom: 2.92325 
forces: 2646.880051 0.001099 -857.244914 
Drag coefficient: 0.738704 
torque (ref. CG): -0.001539 (roll) -1523.561907 (pitch) -0.006704 (yaw) 
----------------------------------------------------- 
step 124, time 0.062000, maxvel 30.000000, total vol 183256, vol(u>maxvel) 6.0293, cell count 979139
bounding box (containing cells with vel>maxvel): xmin -12.2621 -1.69629 -0.503235, xmax 0.793588 1.69631 3.88167m 
bounding box of vehicle: xmin -12.2 -1.3 -6.44084e-18, xmax 6.65768e-18 1.30001 3.6m 
gts area: 163.395 
yplus max: 130.468, yplus min: 0.0265538 
position of yplus max: -12.0211 1.28998 2.0049 
yplus prom: 2.9224 
forces: 2642.155169 0.004729 -856.794397 
Drag coefficient: 0.737385 
torque (ref. CG): -0.006621 (roll) -1527.428584 (pitch) -0.028849 (yaw) 
----------------------------------------------------- 
step 125, time 0.062500, maxvel 30.000000, total vol 183256, vol(u>maxvel) 6.00303, cell count 975864
bounding box (containing cells with vel>maxvel): xmin -12.2621 -1.69629 -0.503235, xmax 0.793588 1.69631 3.88167m 
bounding box of vehicle: xmin -12.2 -1.3 -6.44084e-18, xmax 6.65768e-18 1.30001 3.6m 
gts area: 163.395 
yplus max: 130.465, yplus min: 0.0268851 
position of yplus max: -12.0211 1.28998 2.0049 
yplus prom: 2.92154 
forces: 2637.454392 0.003660 -856.416942 
Drag coefficient: 0.736073 
torque (ref. CG): -0.005125 (roll) -1531.707195 (pitch) -0.022329 (yaw) 
----------------------------------------------------- 
[...]
bounding box of vehicle: xmin -12.2 -1.3 -6.44084e-18, xmax 6.65768e-18 1.30001 3.6m 
gts area: 163.395 
yplus max: 130.082, yplus min: 0.0403034 
position of yplus max: -12.0211 1.28998 2.0049 
yplus prom: 2.66353 
forces: 1192.199953 -0.118975 -463.132695 
Drag coefficient: 0.332725 
torque (ref. CG): 0.166565 (roll) -1156.029504 (pitch) 0.725746 (yaw) 
----------------------------------------------------- 
step 1970, time 0.985000, maxvel 30.000000, total vol 183256, vol(u>maxvel) 1.97818, cell count 540234
bounding box (containing cells with vel>maxvel): xmin -12.262 -1.6961 -0.503235, xmax -10.738 1.6961 3.27556m 
bounding box of vehicle: xmin -12.2 -1.3 -6.44084e-18, xmax 6.65768e-18 1.30001 3.6m 
gts area: 163.395 
yplus max: 130.082, yplus min: 0.0400041 
position of yplus max: -12.0211 1.28998 2.0049 
yplus prom: 2.66355 
forces: 1192.179876 -0.118817 -463.156551 
Drag coefficient: 0.332719 
torque (ref. CG): 0.166344 (roll) -1156.203132 (pitch) 0.724783 (yaw) 
----------------------------------------------------- 
step 1971, time 0.985500, maxvel 30.000000, total vol 183256, vol(u>maxvel) 1.97822, cell count 540227
bounding box (containing cells with vel>maxvel): xmin -12.262 -1.6961 -0.503235, xmax -10.738 1.6961 3.27556m 
bounding box of vehicle: xmin -12.2 -1.3 -6.44084e-18, xmax 6.65768e-18 1.30001 3.6m 
gts area: 163.395 
yplus max: 130.082, yplus min: 0.0397072 
position of yplus max: -12.0211 1.28998 2.0049 
yplus prom: 2.66357 
forces: 1192.160273 -0.118870 -463.180962 
Drag coefficient: 0.332714 
torque (ref. CG): 0.166418 (roll) -1156.379485 (pitch) 0.725105 (yaw) 
----------------------------------------------------- 
step 1972, time 0.986000, maxvel 30.000000, total vol 183256, vol(u>maxvel) 1.97833, cell count 540220
bounding box (containing cells with vel>maxvel): xmin -12.262 -1.6961 -0.503235, xmax -10.738 1.6961 3.27556m 
bounding box of vehicle: xmin -12.2 -1.3 -6.44084e-18, xmax 6.65768e-18 1.30001 3.6m 
gts area: 163.395 
yplus max: 130.082, yplus min: 0.0394132 
position of yplus max: -12.0211 1.28998 2.0049 
yplus prom: 2.66359 
forces: 1192.140597 -0.118720 -463.205891 
Drag coefficient: 0.332708 
torque (ref. CG): 0.166208 (roll) -1156.559098 (pitch) 0.724194 (yaw) 
----------------------------------------------------- 
step 1973, time 0.986500, maxvel 30.000000, total vol 183256, vol(u>maxvel) 1.97832, cell count 540215
bounding box (containing cells with vel>maxvel): xmin -12.262 -1.6961 -0.503235, xmax -10.738 1.6961 3.27556m 
bounding box of vehicle: xmin -12.2 -1.3 -6.44084e-18, xmax 6.65768e-18 1.30001 3.6m 
gts area: 163.395 
yplus max: 130.082, yplus min: 0.0391228 
position of yplus max: -12.0211 1.28998 2.0049 
yplus prom: 2.66361 
forces: 1192.121242 -0.118723 -463.231337 
Drag coefficient: 0.332703 
torque (ref. CG): 0.166213 (roll) -1156.741417 (pitch) 0.724212 (yaw) 
----------------------------------------------------- 
step 1974, time 0.987000, maxvel 30.000000, total vol 183256, vol(u>maxvel) 1.97848, cell count 540209
bounding box (containing cells with vel>maxvel): xmin -12.262 -1.6961 -0.503235, xmax -10.738 1.6961 3.27556m 
bounding box of vehicle: xmin -12.2 -1.3 -6.44084e-18, xmax 6.65768e-18 1.30001 3.6m 
gts area: 163.395 
yplus max: 130.082, yplus min: 0.0388365 
position of yplus max: -12.0211 1.28998 2.0049 
yplus prom: 2.66364 
forces: 1192.102769 -0.118547 -463.257145 
Drag coefficient: 0.332698 
torque (ref. CG): 0.165966 (roll) -1156.924707 (pitch) 0.723139 (yaw) 
----------------------------------------------------- 
step 1975, time 0.987500, maxvel 30.000000, total vol 183256, vol(u>maxvel) 1.97847, cell count 540210
bounding box (containing cells with vel>maxvel): xmin -12.262 -1.6961 -0.503235, xmax -10.738 1.6961 3.27556m 
bounding box of vehicle: xmin -12.2 -1.3 -6.44084e-18, xmax 6.65768e-18 1.30001 3.6m 
gts area: 163.395 
yplus max: 130.082, yplus min: 0.0385544 
position of yplus max: -12.0211 1.28998 2.0049 
yplus prom: 2.66366 
forces: 1192.084043 -0.118748 -463.283880 
Drag coefficient: 0.332692 
torque (ref. CG): 0.166248 (roll) -1157.114006 (pitch) 0.724365 (yaw) 
----------------------------------------------------- 
step 1976, time 0.988000, maxvel 30.000000, total vol 183256, vol(u>maxvel) 1.97853, cell count 540205
bounding box (containing cells with vel>maxvel): xmin -12.262 -1.6961 -0.503235, xmax -10.738 1.6961 3.27556m 
bounding box of vehicle: xmin -12.2 -1.3 -6.44084e-18, xmax 6.65768e-18 1.30001 3.6m 
gts area: 163.395 
yplus max: 130.082, yplus min: 0.0382766 
position of yplus max: -12.0211 1.28998 2.0049 
yplus prom: 2.66368 
forces: 1192.065716 -0.118686 -463.311048 
Drag coefficient: 0.332687 
torque (ref. CG): 0.166160 (roll) -1157.305389 (pitch) 0.723984 (yaw) 
----------------------------------------------------- 
step 1977, time 0.988500, maxvel 30.000000, total vol 183256, vol(u>maxvel) 1.97857, cell count 540200
bounding box (containing cells with vel>maxvel): xmin -12.262 -1.6961 -0.503235, xmax -10.738 1.6961 3.27556m 
bounding box of vehicle: xmin -12.2 -1.3 -6.44084e-18, xmax 6.65768e-18 1.30001 3.6m 
gts area: 163.395 
yplus max: 130.082, yplus min: 0.0380039 
position of yplus max: -12.0211 1.28998 2.0049 
yplus prom: 2.6637 
forces: 1192.047966 -0.118403 -463.338486 
Drag coefficient: 0.332682 
torque (ref. CG): 0.165764 (roll) -1157.497611 (pitch) 0.722256 (yaw) 
----------------------------------------------------- 
step 1978, time 0.989000, maxvel 30.000000, total vol 183256, vol(u>maxvel) 1.97867, cell count 540191
bounding box (containing cells with vel>maxvel): xmin -12.262 -1.6961 -0.503235, xmax -10.738 1.6961 3.27556m 
bounding box of vehicle: xmin -12.2 -1.3 -6.44084e-18, xmax 6.65768e-18 1.30001 3.6m 
gts area: 163.395 
yplus max: 130.082, yplus min: 0.0377367 
position of yplus max: -12.0211 1.28998 2.0049 
yplus prom: 2.66373 
forces: 1192.029925 -0.118625 -463.366823 
Drag coefficient: 0.332677 
torque (ref. CG): 0.166075 (roll) -1157.695728 (pitch) 0.723611 (yaw) 
----------------------------------------------------- 
step 1979, time 0.989500, maxvel 30.000000, total vol 183256, vol(u>maxvel) 1.97867, cell count 540190
bounding box (containing cells with vel>maxvel): xmin -12.262 -1.6961 -0.503235, xmax -10.738 1.6961 3.27556m 
bounding box of vehicle: xmin -12.2 -1.3 -6.44084e-18, xmax 6.65768e-18 1.30001 3.6m 
gts area: 163.395 
yplus max: 130.082, yplus min: 0.0374758 
position of yplus max: -12.0211 1.28998 2.0049 
yplus prom: 2.66375 
forces: 1192.012739 -0.118480 -463.395433 
Drag coefficient: 0.332673 
torque (ref. CG): 0.165872 (roll) -1157.894308 (pitch) 0.722729 (yaw) 
----------------------------------------------------- 
step 1980, time 0.990000, maxvel 30.000000, total vol 183256, vol(u>maxvel) 1.97867, cell count 540191
bounding box (containing cells with vel>maxvel): xmin -12.262 -1.6961 -0.503235, xmax -10.738 1.6961 3.27556m 
bounding box of vehicle: xmin -12.2 -1.3 -6.44084e-18, xmax 6.65768e-18 1.30001 3.6m 
gts area: 163.395 
yplus max: 130.082, yplus min: 0.0372219 
position of yplus max: -12.0211 1.28998 2.0049 
yplus prom: 2.66377 
forces: 1191.995775 -0.118499 -463.424617 
Drag coefficient: 0.332668 
torque (ref. CG): 0.165899 (roll) -1158.096078 (pitch) 0.722847 (yaw) 
----------------------------------------------------- 
step 1981, time 0.990500, maxvel 30.000000, total vol 183256, vol(u>maxvel) 1.97871, cell count 540183
bounding box (containing cells with vel>maxvel): xmin -12.262 -1.6961 -0.503235, xmax -10.738 1.6961 3.27556m 
bounding box of vehicle: xmin -12.2 -1.3 -6.44084e-18, xmax 6.65768e-18 1.30001 3.6m 
gts area: 163.395 
yplus max: 130.082, yplus min: 0.0369751 
position of yplus max: -12.0211 1.28998 2.0049 
yplus prom: 2.66379 
forces: 1191.979124 -0.118365 -463.454389 
Drag coefficient: 0.332663 
torque (ref. CG): 0.165711 (roll) -1158.301000 (pitch) 0.722025 (yaw) 
----------------------------------------------------- 
step 1982, time 0.991000, maxvel 30.000000, total vol 183256, vol(u>maxvel) 1.97875, cell count 540180
bounding box (containing cells with vel>maxvel): xmin -12.262 -1.6961 -0.503235, xmax -10.738 1.6961 3.27556m 
bounding box of vehicle: xmin -12.2 -1.3 -6.44084e-18, xmax 6.65768e-18 1.30001 3.6m 
gts area: 163.395 
yplus max: 130.082, yplus min: 0.0367363 
position of yplus max: -12.0211 1.28998 2.0049 
yplus prom: 2.66382 
forces: 1191.962507 -0.118376 -463.484741 
Drag coefficient: 0.332659 
torque (ref. CG): 0.165726 (roll) -1158.509412 (pitch) 0.722094 (yaw) 
----------------------------------------------------- 
step 1983, time 0.991500, maxvel 30.000000, total vol 183256, vol(u>maxvel) 1.97878, cell count 540168
bounding box (containing cells with vel>maxvel): xmin -12.262 -1.6961 -0.503235, xmax -10.738 1.6961 3.27556m 
bounding box of vehicle: xmin -12.2 -1.3 -6.44084e-18, xmax 6.65768e-18 1.30001 3.6m 
gts area: 163.395 
yplus max: 130.082, yplus min: 0.036506 
position of yplus max: -12.0211 1.28998 2.0049 
yplus prom: 2.66384 
forces: 1191.946297 -0.118302 -463.515578 
Drag coefficient: 0.332654 
torque (ref. CG): 0.165623 (roll) -1158.720209 (pitch) 0.721645 (yaw) 
----------------------------------------------------- 
step 1984, time 0.992000, maxvel 30.000000, total vol 183256, vol(u>maxvel) 1.97882, cell count 540166
bounding box (containing cells with vel>maxvel): xmin -12.262 -1.6961 -0.503235, xmax -10.738 1.6961 3.27556m 
bounding box of vehicle: xmin -12.2 -1.3 -6.44084e-18, xmax 6.65768e-18 1.30001 3.6m 
gts area: 163.395 
yplus max: 130.082, yplus min: 0.0362791 
position of yplus max: -12.0211 1.28998 2.0049 
yplus prom: 2.66386 
forces: 1191.930525 -0.118128 -463.546784 
Drag coefficient: 0.332650 
torque (ref. CG): 0.165380 (roll) -1158.932648 (pitch) 0.720583 (yaw) 
----------------------------------------------------- 
step 1985, time 0.992500, maxvel 30.000000, total vol 183256, vol(u>maxvel) 1.97882, cell count 540158
bounding box (containing cells with vel>maxvel): xmin -12.262 -1.6961 -0.503235, xmax -10.738 1.6961 3.27556m 
bounding box of vehicle: xmin -12.2 -1.3 -6.44084e-18, xmax 6.65768e-18 1.30001 3.6m 
gts area: 163.395 
yplus max: 130.082, yplus min: 0.0360644 
position of yplus max: -12.0211 1.28998 2.0049 
yplus prom: 2.66389 
forces: 1191.914672 -0.118305 -463.578761 
Drag coefficient: 0.332645 
torque (ref. CG): 0.165627 (roll) -1159.149903 (pitch) 0.721659 (yaw) 
----------------------------------------------------- 
step 1986, time 0.993000, maxvel 30.000000, total vol 183256, vol(u>maxvel) 1.97917, cell count 540160
bounding box (containing cells with vel>maxvel): xmin -12.262 -1.6961 -0.503235, xmax -10.738 1.6961 3.27556m 
bounding box of vehicle: xmin -12.2 -1.3 -6.44084e-18, xmax 6.65768e-18 1.30001 3.6m 
gts area: 163.395 
yplus max: 130.082, yplus min: 0.0358607 
position of yplus max: -12.0211 1.28998 2.0049 
yplus prom: 2.66391 
forces: 1191.899508 -0.118238 -463.611084 
Drag coefficient: 0.332641 
torque (ref. CG): 0.165533 (roll) -1159.368298 (pitch) 0.721252 (yaw) 
----------------------------------------------------- 
step 1987, time 0.993500, maxvel 30.000000, total vol 183256, vol(u>maxvel) 1.97916, cell count 540154
bounding box (containing cells with vel>maxvel): xmin -12.262 -1.6961 -0.503235, xmax -10.738 1.6961 3.27556m 
bounding box of vehicle: xmin -12.2 -1.3 -6.44084e-18, xmax 6.65768e-18 1.30001 3.6m 
gts area: 163.395 
yplus max: 130.082, yplus min: 0.0356681 
position of yplus max: -12.0211 1.28998 2.0049 
yplus prom: 2.66393 
forces: 1191.884647 -0.118180 -463.643891 
Drag coefficient: 0.332637 
torque (ref. CG): 0.165451 (roll) -1159.589228 (pitch) 0.720895 (yaw) 
----------------------------------------------------- 
step 1988, time 0.994000, maxvel 30.000000, total vol 183256, vol(u>maxvel) 1.97923, cell count 540151
bounding box (containing cells with vel>maxvel): xmin -12.262 -1.6961 -0.503235, xmax -10.738 1.6961 3.27556m 
bounding box of vehicle: xmin -12.2 -1.3 -6.44084e-18, xmax 6.65768e-18 1.30001 3.6m 
gts area: 163.395 
yplus max: 130.082, yplus min: 0.0354886 
position of yplus max: -12.0211 1.28998 2.0049 
yplus prom: 2.66396 
forces: 1191.870036 -0.118145 -463.677345 
Drag coefficient: 0.332633 
torque (ref. CG): 0.165403 (roll) -1159.813751 (pitch) 0.720686 (yaw) 
----------------------------------------------------- 
step 1989, time 0.994500, maxvel 30.000000, total vol 183256, vol(u>maxvel) 1.97957, cell count 540143
bounding box (containing cells with vel>maxvel): xmin -12.262 -1.6961 -0.503235, xmax -10.738 1.6961 3.27556m 
bounding box of vehicle: xmin -12.2 -1.3 -6.44084e-18, xmax 6.65768e-18 1.30001 3.6m 
gts area: 163.395 
yplus max: 130.082, yplus min: 0.0353213 
position of yplus max: -12.0211 1.28998 2.0049 
yplus prom: 2.66398 
forces: 1191.855270 -0.118052 -463.711361 
Drag coefficient: 0.332629 
torque (ref. CG): 0.165272 (roll) -1160.041921 (pitch) 0.720114 (yaw) 
----------------------------------------------------- 
step 1990, time 0.995000, maxvel 30.000000, total vol 183256, vol(u>maxvel) 1.97957, cell count 540136
bounding box (containing cells with vel>maxvel): xmin -12.262 -1.6961 -0.503235, xmax -10.738 1.6961 3.27556m 
bounding box of vehicle: xmin -12.2 -1.3 -6.44084e-18, xmax 6.65768e-18 1.30001 3.6m 
gts area: 163.395 
yplus max: 130.082, yplus min: 0.0351683 
position of yplus max: -12.0211 1.28998 2.0049 
yplus prom: 2.664 
forces: 1191.841442 -0.118091 -463.745725 
Drag coefficient: 0.332625 
torque (ref. CG): 0.165327 (roll) -1160.270902 (pitch) 0.720353 (yaw) 
----------------------------------------------------- 
step 1991, time 0.995500, maxvel 30.000000, total vol 183256, vol(u>maxvel) 1.97965, cell count 540140
bounding box (containing cells with vel>maxvel): xmin -12.262 -1.6961 -0.503235, xmax -10.738 1.6961 3.27556m 
bounding box of vehicle: xmin -12.2 -1.3 -6.44084e-18, xmax 6.65768e-18 1.30001 3.6m 
gts area: 163.395 
yplus max: 130.082, yplus min: 0.0350317 
position of yplus max: -12.0211 1.28998 2.0049 
yplus prom: 2.66403 
forces: 1191.827252 -0.117984 -463.780715 
Drag coefficient: 0.332621 
torque (ref. CG): 0.165178 (roll) -1160.504210 (pitch) 0.719705 (yaw) 
----------------------------------------------------- 
step 1992, time 0.996000, maxvel 30.000000, total vol 183256, vol(u>maxvel) 1.97965, cell count 540133
bounding box (containing cells with vel>maxvel): xmin -12.262 -1.6961 -0.503235, xmax -10.738 1.6961 3.27556m 
bounding box of vehicle: xmin -12.2 -1.3 -6.44084e-18, xmax 6.65768e-18 1.30001 3.6m 
gts area: 163.395 
yplus max: 130.082, yplus min: 0.0349087 
position of yplus max: -12.0211 1.28998 2.0049 
yplus prom: 2.66405 
forces: 1191.813840 -0.117999 -463.816128 
Drag coefficient: 0.332617 
torque (ref. CG): 0.165199 (roll) -1160.739006 (pitch) 0.719796 (yaw) 
----------------------------------------------------- 
step 1993, time 0.996500, maxvel 30.000000, total vol 183256, vol(u>maxvel) 1.97965, cell count 540127
bounding box (containing cells with vel>maxvel): xmin -12.262 -1.6961 -0.503235, xmax -10.738 1.6961 3.27556m 
bounding box of vehicle: xmin -12.2 -1.3 -6.44084e-18, xmax 6.65768e-18 1.30001 3.6m 
gts area: 163.395 
yplus max: 130.082, yplus min: 0.0348009 
position of yplus max: -12.0211 1.28998 2.0049 
yplus prom: 2.66407 
forces: 1191.800552 -0.117966 -463.852126 
Drag coefficient: 0.332613 
torque (ref. CG): 0.165152 (roll) -1160.977196 (pitch) 0.719592 (yaw) 
----------------------------------------------------- 
step 1994, time 0.997000, maxvel 30.000000, total vol 183256, vol(u>maxvel) 1.97964, cell count 540111
bounding box (containing cells with vel>maxvel): xmin -12.262 -1.6961 -0.503235, xmax -10.738 1.6961 3.27556m 
bounding box of vehicle: xmin -12.2 -1.3 -6.44084e-18, xmax 6.65768e-18 1.30001 3.6m 
gts area: 163.395 
yplus max: 130.082, yplus min: 0.0347096 
position of yplus max: -12.0211 1.28998 2.0049 
yplus prom: 2.6641 
forces: 1191.787611 -0.117927 -463.888664 
Drag coefficient: 0.332610 
torque (ref. CG): 0.165097 (roll) -1161.218192 (pitch) 0.719353 (yaw) 
----------------------------------------------------- 
step 1995, time 0.997500, maxvel 30.000000, total vol 183256, vol(u>maxvel) 1.97973, cell count 540106
bounding box (containing cells with vel>maxvel): xmin -12.262 -1.6961 -0.503235, xmax -10.738 1.6961 3.27556m 
bounding box of vehicle: xmin -12.2 -1.3 -6.44084e-18, xmax 6.65768e-18 1.30001 3.6m 
gts area: 163.395 
yplus max: 130.081, yplus min: 0.0346353 
position of yplus max: -12.0211 1.28998 2.0049 
yplus prom: 2.66412 
forces: 1191.774853 -0.117879 -463.925696 
Drag coefficient: 0.332606 
torque (ref. CG): 0.165031 (roll) -1161.461954 (pitch) 0.719062 (yaw) 
----------------------------------------------------- 
step 1996, time 0.998000, maxvel 30.000000, total vol 183256, vol(u>maxvel) 1.97978, cell count 540096
bounding box (containing cells with vel>maxvel): xmin -12.262 -1.6961 -0.503235, xmax -10.738 1.6961 3.27556m 
bounding box of vehicle: xmin -12.2 -1.3 -6.44084e-18, xmax 6.65768e-18 1.30001 3.6m 
gts area: 163.395 
yplus max: 130.081, yplus min: 0.0345788 
position of yplus max: -12.0211 1.28998 2.0049 
yplus prom: 2.66414 
forces: 1191.762364 -0.117869 -463.963307 
Drag coefficient: 0.332603 
torque (ref. CG): 0.165017 (roll) -1161.708865 (pitch) 0.719001 (yaw) 
----------------------------------------------------- 
step 1997, time 0.998500, maxvel 30.000000, total vol 183256, vol(u>maxvel) 1.97978, cell count 540086
bounding box (containing cells with vel>maxvel): xmin -12.262 -1.6961 -0.503235, xmax -10.738 1.6961 3.27556m 
bounding box of vehicle: xmin -12.2 -1.3 -6.44084e-18, xmax 6.65768e-18 1.30001 3.6m 
gts area: 163.395 
yplus max: 130.081, yplus min: 0.03454 
position of yplus max: -12.0211 1.28998 2.0049 
yplus prom: 2.66417 
forces: 1191.750016 -0.117770 -464.001350 
Drag coefficient: 0.332599 
torque (ref. CG): 0.164878 (roll) -1161.958212 (pitch) 0.718399 (yaw) 
----------------------------------------------------- 
step 1998, time 0.999000, maxvel 30.000000, total vol 183256, vol(u>maxvel) 1.97977, cell count 540068
bounding box (containing cells with vel>maxvel): xmin -12.262 -1.6961 -0.503235, xmax -10.738 1.6961 3.27556m 
bounding box of vehicle: xmin -12.2 -1.3 -6.44084e-18, xmax 6.65768e-18 1.30001 3.6m 
gts area: 163.395 
yplus max: 130.081, yplus min: 0.0345194 
position of yplus max: -12.0211 1.28998 2.0049 
yplus prom: 2.66419 
forces: 1191.738407 -0.117854 -464.039806 
Drag coefficient: 0.332596 
torque (ref. CG): 0.164995 (roll) -1162.209050 (pitch) 0.718909 (yaw) 
----------------------------------------------------- 
step 1999, time 0.999500, maxvel 30.000000, total vol 183256, vol(u>maxvel) 1.97975, cell count 540057
bounding box (containing cells with vel>maxvel): xmin -12.262 -1.6961 -0.503235, xmax -10.738 1.6961 3.27556m 
bounding box of vehicle: xmin -12.2 -1.3 -6.44084e-18, xmax 6.65768e-18 1.30001 3.6m 
gts area: 163.395 
yplus max: 130.081, yplus min: 0.0345175 
position of yplus max: -12.0211 1.28998 2.0049 
yplus prom: 2.66422 
forces: 1191.726714 -0.117716 -464.078902 
Drag coefficient: 0.332593 
torque (ref. CG): 0.164803 (roll) -1162.463899 (pitch) 0.718069 (yaw) 
----------------------------------------------------- 
step 2000, time 1.000000, maxvel 30.000000, total vol 183256, vol(u>maxvel) 1.97975, cell count 540055
bounding box (containing cells with vel>maxvel): xmin -12.262 -1.6961 -0.503235, xmax -10.738 1.6961 3.27556m 
bounding box of vehicle: xmin -12.2 -1.3 -6.44084e-18, xmax 6.65768e-18 1.30001 3.6m 
gts area: 163.395 
yplus max: 130.081, yplus min: 0.0345324 
position of yplus max: -12.0211 1.28998 2.0049 
yplus prom: 2.66424 
forces: 1191.715178 -0.117797 -464.118662 
Drag coefficient: 0.332589 
torque (ref. CG): 0.164915 (roll) -1162.722589 (pitch) 0.718559 (yaw) 
----------------------------------------------------- 

 *****************************
  Post-calculation operations
 *****************************

Ends run at vie ago 26 03:11:11 ART 2022
