Start run at jue sep 1 13:28:13 ART 2022
PYTHON_CS_XFLAGS=' -O0 -g3 -ggdb3 -I/usr/include/jsoncpp ' /share/storage/pub/mstorti/saturne-vof/bin/code_saturne  run --param setup.xml

The following have been reloaded with a version change:
  1) llvm/6.0.0 => llvm/3.4.2


The following have been reloaded with a version change:
  1) llvm/3.4.2 => llvm/6.0.0


                      Code_Saturne
                      ************

 Version:   6.1-alpha
 Path:      /share/storage/pub/mstorti/saturne-vof

 Result directory:
   /share/storage/finzeo/GTS_Tunay_2/RESU/20220901-1328


 ****************************************
  Compiling user subroutines and linking
 ****************************************


 ****************************
  Preparing calculation data
 ****************************

 Parallel Code_Saturne on 100 processes.


 ***************************
  Preprocessing calculation
 ***************************


 **********************
  Starting calculation
 **********************

Warning: Process to core binding is enabled and OMP_NUM_THREADS is set to non-zero (1) value
If your program has OpenMP sections, this can cause over-subscription of cores and consequently poor performance
To avoid this, please re-run your application after setting MV2_ENABLE_AFFINITY=0
Use MV2_USE_THREAD_WARNING=0 to suppress this message
step 1, time 0.000500, maxvel 30.000000, total vol 183257, vol(u>maxvel) 7.61971, cell count 1253309
bounding box (containing cells with vel>maxvel): xmin -12.2899 -1.84599 -0.484622, xmax 0.210191 1.84599 4.03086m 
bounding box of vehicle: xmin -12.2 -1.30008 -6.44084e-18, xmax 6.64751e-18 1.30008 3.6m 
gts area: 163.426 
yplus max: 105.298, yplus min: 0 
position of yplus max: -8.09529 -1.21164 3.58697 
yplus prom: 6.80335 
forces: 49818883.573227 -791.894961 -5788593.242983 
Drag coefficient: 13902.898923 
torque (ref. CG): 1108.652946 (roll) 34436018.220319 (pitch) 4830.559264 (yaw) 
----------------------------------------------------- 
step 2, time 0.001000, maxvel 30.000000, total vol 183257, vol(u>maxvel) 7.89423, cell count 1559467
bounding box (containing cells with vel>maxvel): xmin -12.2899 -1.84628 -0.489173, xmax 0.210918 1.84631 4.10546m 
bounding box of vehicle: xmin -12.2 -1.30008 -6.44084e-18, xmax 6.64751e-18 1.30008 3.6m 
gts area: 163.426 
yplus max: 109.034, yplus min: 0.189456 
position of yplus max: -8.09529 -1.21164 3.58697 
yplus prom: 3.25712 
forces: 1232351.979591 4.547011 -154352.133756 
Drag coefficient: 343.911059 
torque (ref. CG): -6.365816 (roll) 783744.755515 (pitch) -27.736769 (yaw) 
----------------------------------------------------- 
step 3, time 0.001500, maxvel 30.000000, total vol 183257, vol(u>maxvel) 7.88239, cell count 1693781
bounding box (containing cells with vel>maxvel): xmin -12.2898 -1.84628 -0.489173, xmax 0.213257 1.84631 4.10545m 
bounding box of vehicle: xmin -12.2 -1.30008 -6.44084e-18, xmax 6.64751e-18 1.30008 3.6m 
gts area: 163.426 
yplus max: 113.05, yplus min: 0.0824198 
position of yplus max: -12.0211 -1.28993 2.00489 
yplus prom: 3.29982 
forces: 27571.899416 -5.966562 -3697.389688 
Drag coefficient: 7.694458 
torque (ref. CG): 8.353187 (roll) 16046.582084 (pitch) 36.396031 (yaw) 
----------------------------------------------------- 
step 4, time 0.002000, maxvel 30.000000, total vol 183257, vol(u>maxvel) 7.87308, cell count 1763781
bounding box (containing cells with vel>maxvel): xmin -12.2898 -1.84627 -0.489173, xmax 0.213381 1.84631 4.10545m 
bounding box of vehicle: xmin -12.2 -1.30008 -6.44084e-18, xmax 6.64751e-18 1.30008 3.6m 
gts area: 163.426 
yplus max: 113.968, yplus min: 0.0584089 
position of yplus max: -12.0211 -1.28993 2.00489 
yplus prom: 3.16306 
forces: 2091.189226 1.749147 -813.525932 
Drag coefficient: 0.583586 
torque (ref. CG): -2.448805 (roll) -2034.843268 (pitch) -10.669795 (yaw) 
----------------------------------------------------- 
step 5, time 0.002500, maxvel 30.000000, total vol 183257, vol(u>maxvel) 7.86352, cell count 1744744
bounding box (containing cells with vel>maxvel): xmin -12.2897 -1.84621 -0.489173, xmax 0.213488 1.84623 4.10545m 
bounding box of vehicle: xmin -12.2 -1.30008 -6.44084e-18, xmax 6.64751e-18 1.30008 3.6m 
gts area: 163.426 
yplus max: 114.904, yplus min: 0.064234 
position of yplus max: -12.0211 -1.28993 2.00489 
yplus prom: 3.00427 
forces: 2253.433045 -0.113271 -900.910515 
Drag coefficient: 0.628863 
torque (ref. CG): 0.158579 (roll) -2340.747879 (pitch) 0.690951 (yaw) 
----------------------------------------------------- 
step 6, time 0.003000, maxvel 30.000000, total vol 183257, vol(u>maxvel) 7.86268, cell count 1728023
bounding box (containing cells with vel>maxvel): xmin -12.2896 -1.84621 -0.489173, xmax 0.266218 1.84623 4.10545m 
bounding box of vehicle: xmin -12.2 -1.30008 -6.44084e-18, xmax 6.64751e-18 1.30008 3.6m 
gts area: 163.426 
yplus max: 115.88, yplus min: 0.0607535 
position of yplus max: -12.0304 -1.28988 1.94884 
yplus prom: 2.92484 
forces: 2470.373966 -0.230976 -913.212276 
Drag coefficient: 0.689404 
torque (ref. CG): 0.323366 (roll) -2112.071331 (pitch) 1.408952 (yaw) 
----------------------------------------------------- 
step 7, time 0.003500, maxvel 30.000000, total vol 183257, vol(u>maxvel) 7.85587, cell count 1714643
bounding box (containing cells with vel>maxvel): xmin -12.2894 -1.8462 -0.489173, xmax 0.266664 1.84623 4.10543m 
bounding box of vehicle: xmin -12.2 -1.30008 -6.44084e-18, xmax 6.64751e-18 1.30008 3.6m 
gts area: 163.426 
yplus max: 116.986, yplus min: 0.0275389 
position of yplus max: -12.0492 1.28104 1.98621 
yplus prom: 2.87674 
forces: 2589.193104 -0.227902 -910.348402 
Drag coefficient: 0.722563 
torque (ref. CG): 0.319062 (roll) -1928.254909 (pitch) 1.390200 (yaw) 
----------------------------------------------------- 
step 8, time 0.004000, maxvel 30.000000, total vol 183257, vol(u>maxvel) 7.84366, cell count 1697571
bounding box (containing cells with vel>maxvel): xmin -12.2893 -1.84614 -0.492674, xmax 0.266724 1.84615 4.10543m 
bounding box of vehicle: xmin -12.2 -1.30008 -6.44084e-18, xmax 6.64751e-18 1.30008 3.6m 
gts area: 163.426 
yplus max: 118.233, yplus min: 0.0532137 
position of yplus max: -12.0492 1.28104 1.98621 
yplus prom: 2.84891 
forces: 2690.675690 -0.189936 -906.405573 
Drag coefficient: 0.750884 
torque (ref. CG): 0.265911 (roll) -1762.128028 (pitch) 1.158611 (yaw) 
----------------------------------------------------- 
step 9, time 0.004500, maxvel 30.000000, total vol 183257, vol(u>maxvel) 7.83205, cell count 1670360
bounding box (containing cells with vel>maxvel): xmin -12.2893 -1.84614 -0.492674, xmax 0.266788 1.84615 4.03086m 
bounding box of vehicle: xmin -12.2 -1.30008 -6.44084e-18, xmax 6.64751e-18 1.30008 3.6m 
gts area: 163.426 
yplus max: 119.443, yplus min: 0.0299077 
position of yplus max: -12.0492 1.28104 1.98621 
yplus prom: 2.83581 
forces: 2776.147214 -0.164334 -903.315222 
Drag coefficient: 0.774736 
torque (ref. CG): 0.230068 (roll) -1623.616754 (pitch) 1.002437 (yaw) 
----------------------------------------------------- 
step 10, time 0.005000, maxvel 30.000000, total vol 183257, vol(u>maxvel) 7.8084, cell count 1663931
bounding box (containing cells with vel>maxvel): xmin -12.2892 -1.84607 -0.492674, xmax 0.266812 1.84607 4.03086m 
bounding box of vehicle: xmin -12.2 -1.30008 -6.44084e-18, xmax 6.64751e-18 1.30008 3.6m 
gts area: 163.426 
yplus max: 120.611, yplus min: 0.0483346 
position of yplus max: -12.0492 1.28104 1.98621 
yplus prom: 2.83365 
forces: 2849.079551 -0.154217 -901.075427 
Drag coefficient: 0.795089 
torque (ref. CG): 0.215903 (roll) -1507.848735 (pitch) 0.940722 (yaw) 
----------------------------------------------------- 
step 11, time 0.005500, maxvel 30.000000, total vol 183257, vol(u>maxvel) 7.79444, cell count 1664971
bounding box (containing cells with vel>maxvel): xmin -12.2892 -1.84607 -0.492674, xmax 0.266853 1.84607 4.03086m 
bounding box of vehicle: xmin -12.2 -1.30008 -6.44084e-18, xmax 6.64751e-18 1.30008 3.6m 
gts area: 163.426 
yplus max: 121.726, yplus min: 0.0469943 
position of yplus max: -12.0492 1.28104 1.98621 
yplus prom: 2.83926 
forces: 2910.348552 -0.139463 -899.567572 
Drag coefficient: 0.812188 
torque (ref. CG): 0.195248 (roll) -1412.874216 (pitch) 0.850723 (yaw) 
----------------------------------------------------- 
step 12, time 0.006000, maxvel 30.000000, total vol 183257, vol(u>maxvel) 7.79952, cell count 1664655
bounding box (containing cells with vel>maxvel): xmin -12.2892 -1.84607 -0.492674, xmax 0.26686 1.84607 4.03086m 
bounding box of vehicle: xmin -12.2 -1.30008 -6.44084e-18, xmax 6.64751e-18 1.30008 3.6m 
gts area: 163.426 
yplus max: 122.775, yplus min: 0.0464356 
position of yplus max: -12.0492 1.28104 1.98621 
yplus prom: 2.84999 
forces: 2963.035364 -0.122034 -898.060955 
Drag coefficient: 0.826891 
torque (ref. CG): 0.170848 (roll) -1329.922315 (pitch) 0.744410 (yaw) 
----------------------------------------------------- 
step 13, time 0.006500, maxvel 30.000000, total vol 183257, vol(u>maxvel) 7.81694, cell count 1667169
bounding box (containing cells with vel>maxvel): xmin -12.2892 -1.846 -0.495368, xmax 0.268679 1.846 4.03086m 
bounding box of vehicle: xmin -12.2 -1.30008 -6.44084e-18, xmax 6.64751e-18 1.30008 3.6m 
gts area: 163.426 
yplus max: 123.746, yplus min: 0.0437417 
position of yplus max: -12.0492 1.28104 1.98621 
yplus prom: 2.86411 
forces: 3010.651845 -0.109528 -896.019617 
Drag coefficient: 0.840179 
torque (ref. CG): 0.153339 (roll) -1250.807082 (pitch) 0.668120 (yaw) 
----------------------------------------------------- 
step 14, time 0.007000, maxvel 30.000000, total vol 183257, vol(u>maxvel) 7.81209, cell count 1669425
bounding box (containing cells with vel>maxvel): xmin -12.2892 -1.846 -0.495368, xmax 0.268755 1.846 4.03086m 
bounding box of vehicle: xmin -12.2 -1.30008 -6.44084e-18, xmax 6.64751e-18 1.30008 3.6m 
gts area: 163.426 
yplus max: 124.633, yplus min: 0.0406404 
position of yplus max: -12.0492 1.28104 1.98621 
yplus prom: 2.8802 
forces: 3053.784707 -0.097270 -894.990788 
Drag coefficient: 0.852216 
torque (ref. CG): 0.136178 (roll) -1184.145219 (pitch) 0.593348 (yaw) 
----------------------------------------------------- 
step 15, time 0.007500, maxvel 30.000000, total vol 183257, vol(u>maxvel) 7.8147, cell count 1671653
bounding box (containing cells with vel>maxvel): xmin -12.2892 -1.846 -0.495368, xmax 0.268822 1.846 4.03086m 
bounding box of vehicle: xmin -12.2 -1.30008 -6.44084e-18, xmax 6.64751e-18 1.30008 3.6m 
gts area: 163.426 
yplus max: 125.43, yplus min: 0.0383286 
position of yplus max: -12.0492 1.28104 1.98621 
yplus prom: 2.89703 
forces: 3089.416293 -0.085586 -894.059409 
Drag coefficient: 0.862160 
torque (ref. CG): 0.119820 (roll) -1128.579584 (pitch) 0.522075 (yaw) 
----------------------------------------------------- 
step 16, time 0.008000, maxvel 30.000000, total vol 183257, vol(u>maxvel) 7.81398, cell count 1672790
bounding box (containing cells with vel>maxvel): xmin -12.2892 -1.84592 -0.495368, xmax 0.268861 1.84592 4.03086m 
bounding box of vehicle: xmin -12.2 -1.30008 -6.44084e-18, xmax 6.64751e-18 1.30008 3.6m 
gts area: 163.426 
yplus max: 126.136, yplus min: 0.0372835 
position of yplus max: -12.0492 1.28104 1.98621 
yplus prom: 2.91426 
forces: 3118.770637 -0.075197 -893.561562 
Drag coefficient: 0.870352 
torque (ref. CG): 0.105276 (roll) -1084.446634 (pitch) 0.458701 (yaw) 
----------------------------------------------------- 
step 17, time 0.008500, maxvel 30.000000, total vol 183257, vol(u>maxvel) 7.80211, cell count 1672133
bounding box (containing cells with vel>maxvel): xmin -12.2892 -1.84592 -0.495368, xmax 0.268896 1.84592 4.03086m 
bounding box of vehicle: xmin -12.2 -1.30008 -6.44084e-18, xmax 6.64751e-18 1.30008 3.6m 
gts area: 163.426 
yplus max: 126.876, yplus min: 0.0376703 
position of yplus max: -12.0304 -1.28988 1.94884 
yplus prom: 2.93152 
forces: 3142.427944 -0.065870 -893.085007 
Drag coefficient: 0.876954 
torque (ref. CG): 0.092218 (roll) -1048.419423 (pitch) 0.401807 (yaw) 
----------------------------------------------------- 
step 18, time 0.009000, maxvel 30.000000, total vol 183257, vol(u>maxvel) 7.79388, cell count 1673044
bounding box (containing cells with vel>maxvel): xmin -12.2892 -1.84592 -0.497439, xmax 0.268896 1.84592 4.03085m 
bounding box of vehicle: xmin -12.2 -1.30008 -6.44084e-18, xmax 6.64751e-18 1.30008 3.6m 
gts area: 163.426 
yplus max: 127.547, yplus min: 0.0351753 
position of yplus max: -12.0304 -1.28988 1.94884 
yplus prom: 2.94843 
forces: 3162.249126 -0.056960 -892.739227 
Drag coefficient: 0.882485 
torque (ref. CG): 0.079744 (roll) -1018.560508 (pitch) 0.347457 (yaw) 
----------------------------------------------------- 
step 19, time 0.009500, maxvel 30.000000, total vol 183257, vol(u>maxvel) 7.78517, cell count 1670573
bounding box (containing cells with vel>maxvel): xmin -12.2892 -1.84584 -0.497439, xmax 0.268919 1.84583 4.03085m 
bounding box of vehicle: xmin -12.2 -1.30008 -6.44084e-18, xmax 6.64751e-18 1.30008 3.6m 
gts area: 163.426 
yplus max: 128.139, yplus min: 0.0317419 
position of yplus max: -12.0304 -1.28988 1.94884 
yplus prom: 2.96458 
forces: 3179.731123 -0.049465 -892.559939 
Drag coefficient: 0.887364 
torque (ref. CG): 0.069251 (roll) -992.992053 (pitch) 0.301736 (yaw) 
----------------------------------------------------- 
step 20, time 0.010000, maxvel 30.000000, total vol 183257, vol(u>maxvel) 7.78851, cell count 1664361
bounding box (containing cells with vel>maxvel): xmin -12.2892 -1.84584 -0.497439, xmax 0.341909 1.84583 4.03085m 
bounding box of vehicle: xmin -12.2 -1.30008 -6.44084e-18, xmax 6.64751e-18 1.30008 3.6m 
gts area: 163.426 
yplus max: 128.656, yplus min: 0.0304116 
position of yplus max: -12.0304 -1.28988 1.94884 
yplus prom: 2.97968 
forces: 3194.455276 -0.040186 -892.456477 
Drag coefficient: 0.891473 
torque (ref. CG): 0.056260 (roll) -971.747125 (pitch) 0.245132 (yaw) 
----------------------------------------------------- 
step 21, time 0.010500, maxvel 30.000000, total vol 183257, vol(u>maxvel) 7.78239, cell count 1657075
bounding box (containing cells with vel>maxvel): xmin -12.2892 -1.84584 -0.497439, xmax 0.341994 1.84583 4.03085m 
bounding box of vehicle: xmin -12.2 -1.30008 -6.44084e-18, xmax 6.64751e-18 1.30008 3.6m 
gts area: 163.426 
yplus max: 129.101, yplus min: 0.0278565 
position of yplus max: -12.0304 -1.28988 1.94884 
yplus prom: 2.99354 
forces: 3206.449741 -0.034528 -892.241673 
Drag coefficient: 0.894820 
torque (ref. CG): 0.048340 (roll) -953.644569 (pitch) 0.210622 (yaw) 
----------------------------------------------------- 
step 22, time 0.011000, maxvel 30.000000, total vol 183257, vol(u>maxvel) 7.76539, cell count 1650540
bounding box (containing cells with vel>maxvel): xmin -12.2892 -1.84574 -0.497439, xmax 0.342021 1.84573 4.03085m 
bounding box of vehicle: xmin -12.2 -1.30008 -6.44084e-18, xmax 6.64751e-18 1.30008 3.6m 
gts area: 163.426 
yplus max: 129.48, yplus min: 0.0283233 
position of yplus max: -12.0304 -1.28988 1.94884 
yplus prom: 3.00608 
forces: 3216.377129 -0.024957 -892.211912 
Drag coefficient: 0.897591 
torque (ref. CG): 0.034940 (roll) -939.564684 (pitch) 0.152239 (yaw) 
----------------------------------------------------- 
step 23, time 0.011500, maxvel 30.000000, total vol 183257, vol(u>maxvel) 7.75459, cell count 1642632
bounding box (containing cells with vel>maxvel): xmin -12.2892 -1.84574 -0.497439, xmax 0.342075 1.84573 4.03084m 
bounding box of vehicle: xmin -12.2 -1.30008 -6.44084e-18, xmax 6.64751e-18 1.30008 3.6m 
gts area: 163.426 
yplus max: 129.799, yplus min: 0.0227192 
position of yplus max: -12.0304 -1.28988 1.94884 
yplus prom: 3.01731 
forces: 3224.202191 -0.021329 -891.970475 
Drag coefficient: 0.899774 
torque (ref. CG): 0.029861 (roll) -927.136834 (pitch) 0.130108 (yaw) 
----------------------------------------------------- 
step 24, time 0.012000, maxvel 30.000000, total vol 183257, vol(u>maxvel) 7.74576, cell count 1634219
bounding box (containing cells with vel>maxvel): xmin -12.2892 -1.84564 -0.499033, xmax 0.342103 1.84564 4.03084m 
bounding box of vehicle: xmin -12.2 -1.30008 -6.44084e-18, xmax 6.64751e-18 1.30008 3.6m 
gts area: 163.426 
yplus max: 130.066, yplus min: 0.026349 
position of yplus max: -12.0304 -1.28988 1.94884 
yplus prom: 3.02735 
forces: 3230.132965 -0.018864 -891.666440 
Drag coefficient: 0.901430 
torque (ref. CG): 0.026410 (roll) -916.979134 (pitch) 0.115072 (yaw) 
----------------------------------------------------- 
step 25, time 0.012500, maxvel 30.000000, total vol 183257, vol(u>maxvel) 7.75189, cell count 1628607
bounding box (containing cells with vel>maxvel): xmin -12.2891 -1.84553 -0.499033, xmax 0.344006 1.84554 4.03084m 
bounding box of vehicle: xmin -12.2 -1.30008 -6.44084e-18, xmax 6.64751e-18 1.30008 3.6m 
gts area: 163.426 
yplus max: 130.287, yplus min: 0.0241745 
position of yplus max: -12.0304 -1.28988 1.94884 
yplus prom: 3.03629 
forces: 3233.824562 -0.017582 -891.301754 
Drag coefficient: 0.902460 
torque (ref. CG): 0.024615 (roll) -909.586312 (pitch) 0.107249 (yaw) 
----------------------------------------------------- 
step 26, time 0.013000, maxvel 30.000000, total vol 183257, vol(u>maxvel) 7.75975, cell count 1623867
bounding box (containing cells with vel>maxvel): xmin -12.2891 -1.84553 -0.499033, xmax 0.344117 1.84554 4.03084m 
bounding box of vehicle: xmin -12.2 -1.30008 -6.44084e-18, xmax 6.64751e-18 1.30008 3.6m 
gts area: 163.426 
yplus max: 130.469, yplus min: 0.0194352 
position of yplus max: -12.0304 -1.28988 1.94884 
yplus prom: 3.04428 
forces: 3235.336044 -0.013486 -890.723608 
Drag coefficient: 0.902882 
torque (ref. CG): 0.018880 (roll) -903.943545 (pitch) 0.082264 (yaw) 
----------------------------------------------------- 
step 27, time 0.013500, maxvel 30.000000, total vol 183257, vol(u>maxvel) 7.76913, cell count 1620505
bounding box (containing cells with vel>maxvel): xmin -12.2891 -1.8453 -0.499033, xmax 0.344196 1.84531 4.03083m 
bounding box of vehicle: xmin -12.2 -1.30008 -6.44084e-18, xmax 6.64751e-18 1.30008 3.6m 
gts area: 163.426 
yplus max: 130.618, yplus min: 0.0241877 
position of yplus max: -12.0304 -1.28988 1.94884 
yplus prom: 3.05141 
forces: 3235.002825 -0.002760 -890.319494 
Drag coefficient: 0.902789 
torque (ref. CG): 0.003865 (roll) -901.944956 (pitch) 0.016839 (yaw) 
----------------------------------------------------- 
step 28, time 0.014000, maxvel 30.000000, total vol 183257, vol(u>maxvel) 7.76721, cell count 1617285
bounding box (containing cells with vel>maxvel): xmin -12.2891 -1.77167 -0.499033, xmax 0.344276 1.77179 4.03083m 
bounding box of vehicle: xmin -12.2 -1.30008 -6.44084e-18, xmax 6.64751e-18 1.30008 3.6m 
gts area: 163.426 
yplus max: 130.739, yplus min: 0.016571 
position of yplus max: -12.0304 -1.28988 1.94884 
yplus prom: 3.0578 
forces: 3233.189406 -0.004357 -889.807709 
Drag coefficient: 0.902282 
torque (ref. CG): 0.006100 (roll) -901.361853 (pitch) 0.026580 (yaw) 
----------------------------------------------------- 
step 29, time 0.014500, maxvel 30.000000, total vol 183257, vol(u>maxvel) 7.77163, cell count 1615458
bounding box (containing cells with vel>maxvel): xmin -12.2891 -1.77167 -0.499033, xmax 0.344312 1.77179 4.03083m 
bounding box of vehicle: xmin -12.2 -1.30008 -6.44084e-18, xmax 6.64751e-18 1.30008 3.6m 
gts area: 163.426 
yplus max: 130.838, yplus min: 0.0184337 
position of yplus max: -12.0304 -1.28988 1.94884 
yplus prom: 3.06353 
forces: 3230.489014 -0.007149 -889.320101 
Drag coefficient: 0.901529 
torque (ref. CG): 0.010009 (roll) -902.167999 (pitch) 0.043611 (yaw) 
----------------------------------------------------- 
step 30, time 0.015000, maxvel 30.000000, total vol 183257, vol(u>maxvel) 7.77394, cell count 1613286
bounding box (containing cells with vel>maxvel): xmin -12.2891 -1.77167 -0.499033, xmax 0.344312 1.77179 4.03082m 
bounding box of vehicle: xmin -12.2 -1.30008 -6.44084e-18, xmax 6.64751e-18 1.30008 3.6m 
gts area: 163.426 
yplus max: 130.918, yplus min: 0.0162926 
position of yplus max: -12.0304 -1.28988 1.94884 
yplus prom: 3.06866 
forces: 3226.990706 -0.007843 -888.863328 
Drag coefficient: 0.900553 
torque (ref. CG): 0.010981 (roll) -904.279315 (pitch) 0.047845 (yaw) 
----------------------------------------------------- 
step 31, time 0.015500, maxvel 30.000000, total vol 183257, vol(u>maxvel) 7.769, cell count 1610249
bounding box (containing cells with vel>maxvel): xmin -12.2891 -1.77167 -0.500259, xmax 0.344312 1.77179 4.03082m 
bounding box of vehicle: xmin -12.2 -1.30008 -6.44084e-18, xmax 6.64751e-18 1.30008 3.6m 
gts area: 163.426 
yplus max: 130.982, yplus min: 0.0152335 
position of yplus max: -12.0304 -1.28988 1.94884 
yplus prom: 3.07326 
forces: 3222.909280 -0.007384 -888.368668 
Drag coefficient: 0.899414 
torque (ref. CG): 0.010337 (roll) -906.975884 (pitch) 0.045042 (yaw) 
----------------------------------------------------- 
step 32, time 0.016000, maxvel 30.000000, total vol 183257, vol(u>maxvel) 7.76002, cell count 1607312
bounding box (containing cells with vel>maxvel): xmin -12.2891 -1.77162 -0.500259, xmax 0.344647 1.77171 4.03082m 
bounding box of vehicle: xmin -12.2 -1.30008 -6.44084e-18, xmax 6.64751e-18 1.30008 3.6m 
gts area: 163.426 
yplus max: 131.033, yplus min: 0.0146725 
position of yplus max: -12.0304 -1.28988 1.94884 
yplus prom: 3.07731 
forces: 3218.346408 -0.002795 -887.881745 
Drag coefficient: 0.898140 
torque (ref. CG): 0.003913 (roll) -910.393671 (pitch) 0.017051 (yaw) 
----------------------------------------------------- 
step 33, time 0.016500, maxvel 30.000000, total vol 183257, vol(u>maxvel) 7.75026, cell count 1604805
bounding box (containing cells with vel>maxvel): xmin -12.2891 -1.77162 -0.500259, xmax 0.344666 1.77171 4.03081m 
bounding box of vehicle: xmin -12.2 -1.30008 -6.44084e-18, xmax 6.64751e-18 1.30008 3.6m 
gts area: 163.426 
yplus max: 131.074, yplus min: 0.0172004 
position of yplus max: -12.0304 -1.28988 1.94884 
yplus prom: 3.08088 
forces: 3213.594247 -0.001996 -887.451055 
Drag coefficient: 0.896814 
torque (ref. CG): 0.002795 (roll) -914.419487 (pitch) 0.012177 (yaw) 
----------------------------------------------------- 
step 34, time 0.017000, maxvel 30.000000, total vol 183257, vol(u>maxvel) 7.74632, cell count 1602118
bounding box (containing cells with vel>maxvel): xmin -12.2891 -1.77162 -0.500259, xmax 0.344689 1.77171 4.03081m 
bounding box of vehicle: xmin -12.2 -1.30008 -6.44084e-18, xmax 6.64751e-18 1.30008 3.6m 
gts area: 163.426 
yplus max: 131.107, yplus min: 0.00887791 
position of yplus max: -12.0304 -1.28988 1.94884 
yplus prom: 3.08403 
forces: 3208.528545 -0.001662 -887.050603 
Drag coefficient: 0.895400 
torque (ref. CG): 0.002327 (roll) -919.068714 (pitch) 0.010137 (yaw) 
----------------------------------------------------- 
step 35, time 0.017500, maxvel 30.000000, total vol 183257, vol(u>maxvel) 7.72651, cell count 1598397
bounding box (containing cells with vel>maxvel): xmin -12.2891 -1.77162 -0.500259, xmax 0.344689 1.77171 4.03081m 
bounding box of vehicle: xmin -12.2 -1.30008 -6.44084e-18, xmax 6.64751e-18 1.30008 3.6m 
gts area: 163.426 
yplus max: 131.132, yplus min: 0.01679 
position of yplus max: -12.0304 -1.28988 1.94884 
yplus prom: 3.08682 
forces: 3203.076503 0.000270 -886.589902 
Drag coefficient: 0.893879 
torque (ref. CG): -0.000378 (roll) -923.891301 (pitch) -0.001648 (yaw) 
----------------------------------------------------- 
step 36, time 0.018000, maxvel 30.000000, total vol 183257, vol(u>maxvel) 7.72568, cell count 1594172
bounding box (containing cells with vel>maxvel): xmin -12.2891 -1.77162 -0.500259, xmax 0.416862 1.77171 4.03081m 
bounding box of vehicle: xmin -12.2 -1.30008 -6.44084e-18, xmax 6.64751e-18 1.30008 3.6m 
gts area: 163.426 
yplus max: 131.151, yplus min: 0.0176076 
position of yplus max: -12.0304 -1.28988 1.94884 
yplus prom: 3.08936 
forces: 3197.395107 0.002456 -886.162273 
Drag coefficient: 0.892293 
torque (ref. CG): -0.003438 (roll) -929.236718 (pitch) -0.014981 (yaw) 
----------------------------------------------------- 
step 37, time 0.018500, maxvel 30.000000, total vol 183257, vol(u>maxvel) 7.72183, cell count 1590351
bounding box (containing cells with vel>maxvel): xmin -12.2891 -1.77156 -0.500259, xmax 0.416982 1.77162 4.0308m 
bounding box of vehicle: xmin -12.2 -1.30008 -6.44084e-18, xmax 6.64751e-18 1.30008 3.6m 
gts area: 163.426 
yplus max: 131.165, yplus min: 0.0168672 
position of yplus max: -12.0304 -1.28988 1.94884 
yplus prom: 3.09164 
forces: 3191.372715 0.003551 -885.766597 
Drag coefficient: 0.890613 
torque (ref. CG): -0.004971 (roll) -935.254443 (pitch) -0.021659 (yaw) 
----------------------------------------------------- 
step 38, time 0.019000, maxvel 30.000000, total vol 183257, vol(u>maxvel) 7.72709, cell count 1586298
bounding box (containing cells with vel>maxvel): xmin -12.2891 -1.77156 -0.500259, xmax 0.418714 1.77162 4.0308m 
bounding box of vehicle: xmin -12.2 -1.30008 -6.44084e-18, xmax 6.64751e-18 1.30008 3.6m 
gts area: 163.426 
yplus max: 131.174, yplus min: 0.00680469 
position of yplus max: -12.0304 -1.28988 1.94884 
yplus prom: 3.09369 
forces: 3184.967234 0.005580 -885.403794 
Drag coefficient: 0.888825 
torque (ref. CG): -0.007813 (roll) -942.009017 (pitch) -0.034041 (yaw) 
----------------------------------------------------- 
step 39, time 0.019500, maxvel 30.000000, total vol 183257, vol(u>maxvel) 7.73772, cell count 1581778
bounding box (containing cells with vel>maxvel): xmin -12.2891 -1.77156 -0.501202, xmax 0.418918 1.77162 4.03079m 
bounding box of vehicle: xmin -12.2 -1.30008 -6.44084e-18, xmax 6.64751e-18 1.30008 3.6m 
gts area: 163.426 
yplus max: 131.181, yplus min: 0.0127625 
position of yplus max: -12.0304 -1.28988 1.94884 
yplus prom: 3.09554 
forces: 3178.253087 0.003576 -884.917997 
Drag coefficient: 0.886951 
torque (ref. CG): -0.005006 (roll) -948.445462 (pitch) -0.021814 (yaw) 
----------------------------------------------------- 
step 40, time 0.020000, maxvel 30.000000, total vol 183257, vol(u>maxvel) 7.74246, cell count 1576442
bounding box (containing cells with vel>maxvel): xmin -12.2891 -1.77156 -0.501202, xmax 0.419012 1.77162 4.03079m 
bounding box of vehicle: xmin -12.2 -1.30008 -6.44084e-18, xmax 6.64751e-18 1.30008 3.6m 
gts area: 163.426 
yplus max: 131.184, yplus min: 0.0127747 
position of yplus max: -12.0304 -1.28988 1.94884 
yplus prom: 3.09722 
forces: 3171.699353 0.008845 -884.514652 
Drag coefficient: 0.885123 
torque (ref. CG): -0.012383 (roll) -955.160283 (pitch) -0.053956 (yaw) 
----------------------------------------------------- 
step 41, time 0.020500, maxvel 30.000000, total vol 183257, vol(u>maxvel) 7.74625, cell count 1571071
bounding box (containing cells with vel>maxvel): xmin -12.2891 -1.77156 -0.501202, xmax 0.419101 1.77162 4.03079m 
bounding box of vehicle: xmin -12.2 -1.30008 -6.44084e-18, xmax 6.64751e-18 1.30008 3.6m 
gts area: 163.426 
yplus max: 131.185, yplus min: 0.0123878 
position of yplus max: -12.0304 -1.28988 1.94884 
yplus prom: 3.09875 
forces: 3165.192697 0.009881 -884.064960 
Drag coefficient: 0.883307 
torque (ref. CG): -0.013834 (roll) -961.526483 (pitch) -0.060275 (yaw) 
----------------------------------------------------- 
step 42, time 0.021000, maxvel 30.000000, total vol 183257, vol(u>maxvel) 7.74592, cell count 1564506
bounding box (containing cells with vel>maxvel): xmin -12.2891 -1.7715 -0.501202, xmax 0.419143 1.77154 4.03079m 
bounding box of vehicle: xmin -12.2 -1.30008 -6.44084e-18, xmax 6.64751e-18 1.30008 3.6m 
gts area: 163.426 
yplus max: 131.184, yplus min: 0.00956927 
position of yplus max: -12.0304 -1.28988 1.94884 
yplus prom: 3.10014 
forces: 3158.755126 0.010309 -883.667002 
Drag coefficient: 0.881510 
torque (ref. CG): -0.014433 (roll) -968.111537 (pitch) -0.062886 (yaw) 
----------------------------------------------------- 
step 43, time 0.021500, maxvel 30.000000, total vol 183257, vol(u>maxvel) 7.73912, cell count 1558335
bounding box (containing cells with vel>maxvel): xmin -12.2891 -1.7715 -0.501202, xmax 0.419182 1.77154 4.03078m 
bounding box of vehicle: xmin -12.2 -1.30008 -6.44084e-18, xmax 6.64751e-18 1.30008 3.6m 
gts area: 163.426 
yplus max: 131.181, yplus min: 0.0158971 
position of yplus max: -12.0304 -1.28988 1.94884 
yplus prom: 3.10144 
forces: 3152.488739 0.013035 -883.356913 
Drag coefficient: 0.879761 
torque (ref. CG): -0.018249 (roll) -974.992935 (pitch) -0.079515 (yaw) 
----------------------------------------------------- 
step 44, time 0.022000, maxvel 30.000000, total vol 183257, vol(u>maxvel) 7.72652, cell count 1552588
bounding box (containing cells with vel>maxvel): xmin -12.2891 -1.7715 -0.501927, xmax 0.419485 1.77154 4.03078m 
bounding box of vehicle: xmin -12.2 -1.30008 -6.44084e-18, xmax 6.64751e-18 1.30008 3.6m 
gts area: 163.426 
yplus max: 131.177, yplus min: 0.0216825 
position of yplus max: -12.0304 -1.28988 1.94884 
yplus prom: 3.10264 
forces: 3146.080975 0.015600 -883.040537 
Drag coefficient: 0.877973 
torque (ref. CG): -0.021840 (roll) -982.033912 (pitch) -0.095161 (yaw) 
----------------------------------------------------- 
step 45, time 0.022500, maxvel 30.000000, total vol 183257, vol(u>maxvel) 7.70688, cell count 1546462
bounding box (containing cells with vel>maxvel): xmin -12.2891 -1.77144 -0.501927, xmax 0.419485 1.77146 4.03078m 
bounding box of vehicle: xmin -12.2 -1.30008 -6.44084e-18, xmax 6.64751e-18 1.30008 3.6m 
gts area: 163.426 
yplus max: 131.171, yplus min: 0.0208031 
position of yplus max: -12.0304 -1.28988 1.94884 
yplus prom: 3.10375 
forces: 3139.489827 0.016353 -882.666840 
Drag coefficient: 0.876134 
torque (ref. CG): -0.022894 (roll) -988.981969 (pitch) -0.099751 (yaw) 
----------------------------------------------------- 
step 46, time 0.023000, maxvel 30.000000, total vol 183257, vol(u>maxvel) 7.69647, cell count 1540030
bounding box (containing cells with vel>maxvel): xmin -12.2891 -1.77144 -0.501927, xmax 0.41951 1.77146 4.02917m 
bounding box of vehicle: xmin -12.2 -1.30008 -6.44084e-18, xmax 6.64751e-18 1.30008 3.6m 
gts area: 163.426 
yplus max: 131.164, yplus min: 0.0180814 
position of yplus max: -12.0304 -1.28988 1.94884 
yplus prom: 3.10478 
forces: 3132.794970 0.017366 -882.282875 
Drag coefficient: 0.874266 
torque (ref. CG): -0.024312 (roll) -996.012580 (pitch) -0.105931 (yaw) 
----------------------------------------------------- 
step 47, time 0.023500, maxvel 30.000000, total vol 183257, vol(u>maxvel) 7.67718, cell count 1533162
bounding box (containing cells with vel>maxvel): xmin -12.2891 -1.77144 -0.502485, xmax 0.419517 1.77146 4.02916m 
bounding box of vehicle: xmin -12.2 -1.30008 -6.44084e-18, xmax 6.64751e-18 1.30008 3.6m 
gts area: 163.426 
yplus max: 131.157, yplus min: 0.0241566 
position of yplus max: -12.0304 -1.28988 1.94884 
yplus prom: 3.10573 
forces: 3126.160852 0.020541 -881.893045 
Drag coefficient: 0.872414 
torque (ref. CG): -0.028758 (roll) -1002.922384 (pitch) -0.125302 (yaw) 
----------------------------------------------------- 
step 48, time 0.024000, maxvel 30.000000, total vol 183257, vol(u>maxvel) 7.6638, cell count 1527348
bounding box (containing cells with vel>maxvel): xmin -12.2891 -1.77138 -0.502485, xmax 0.419525 1.77139 4.02916m 
bounding box of vehicle: xmin -12.2 -1.30008 -6.44084e-18, xmax 6.64751e-18 1.30008 3.6m 
gts area: 163.426 
yplus max: 131.148, yplus min: 0.021668 
position of yplus max: -12.0304 -1.28988 1.94884 
yplus prom: 3.1066 
forces: 3119.544998 0.017452 -881.417966 
Drag coefficient: 0.870568 
torque (ref. CG): -0.024432 (roll) -1009.286597 (pitch) -0.106455 (yaw) 
----------------------------------------------------- 
step 49, time 0.024500, maxvel 30.000000, total vol 183257, vol(u>maxvel) 7.64217, cell count 1521047
bounding box (containing cells with vel>maxvel): xmin -12.2891 -1.77138 -0.502485, xmax 0.419525 1.77139 4.02916m 
bounding box of vehicle: xmin -12.2 -1.30008 -6.44084e-18, xmax 6.64751e-18 1.30008 3.6m 
gts area: 163.426 
yplus max: 131.139, yplus min: 0.0372195 
position of yplus max: -12.0304 -1.28988 1.94884 
yplus prom: 3.10738 
forces: 3112.950861 0.018575 -881.050322 
Drag coefficient: 0.868728 
torque (ref. CG): -0.026005 (roll) -1016.275759 (pitch) -0.113306 (yaw) 
----------------------------------------------------- 
step 50, time 0.025000, maxvel 30.000000, total vol 183257, vol(u>maxvel) 7.61564, cell count 1514643
bounding box (containing cells with vel>maxvel): xmin -12.2891 -1.77138 -0.502914, xmax 0.419531 1.77139 4.02915m 
bounding box of vehicle: xmin -12.2 -1.30008 -6.44084e-18, xmax 6.64751e-18 1.30008 3.6m 
gts area: 163.426 
yplus max: 131.13, yplus min: 0.0182413 
position of yplus max: -12.0304 -1.28988 1.94884 
yplus prom: 3.10808 
forces: 3106.364637 0.018708 -880.608539 
Drag coefficient: 0.866890 
torque (ref. CG): -0.026192 (roll) -1022.801595 (pitch) -0.114122 (yaw) 
----------------------------------------------------- 
step 51, time 0.025500, maxvel 30.000000, total vol 183257, vol(u>maxvel) 7.60218, cell count 1507899
bounding box (containing cells with vel>maxvel): xmin -12.2891 -1.77132 -0.502914, xmax 0.421161 1.77133 4.02915m 
bounding box of vehicle: xmin -12.2 -1.30008 -6.44084e-18, xmax 6.64751e-18 1.30008 3.6m 
gts area: 163.426 
yplus max: 131.12, yplus min: 0.0337097 
position of yplus max: -12.0304 -1.28988 1.94884 
yplus prom: 3.1087 
forces: 3099.807828 0.020847 -880.268850 
Drag coefficient: 0.865060 
torque (ref. CG): -0.029186 (roll) -1029.909026 (pitch) -0.127166 (yaw) 
----------------------------------------------------- 
step 52, time 0.026000, maxvel 30.000000, total vol 183257, vol(u>maxvel) 7.59316, cell count 1501464
bounding box (containing cells with vel>maxvel): xmin -12.2885 -1.77132 -0.502914, xmax 0.493496 1.77133 4.02915m 
bounding box of vehicle: xmin -12.2 -1.30008 -6.44084e-18, xmax 6.64751e-18 1.30008 3.6m 
gts area: 163.426 
yplus max: 131.109, yplus min: 0.0342974 
position of yplus max: -12.0304 -1.28988 1.94884 
yplus prom: 3.10925 
forces: 3093.165782 0.019446 -879.866654 
Drag coefficient: 0.863206 
torque (ref. CG): -0.027224 (roll) -1036.754492 (pitch) -0.118620 (yaw) 
----------------------------------------------------- 
step 53, time 0.026500, maxvel 30.000000, total vol 183257, vol(u>maxvel) 7.57752, cell count 1493916
bounding box (containing cells with vel>maxvel): xmin -12.2622 -1.77126 -0.502914, xmax 0.493671 1.77126 4.02915m 
bounding box of vehicle: xmin -12.2 -1.30008 -6.44084e-18, xmax 6.64751e-18 1.30008 3.6m 
gts area: 163.426 
yplus max: 131.099, yplus min: 0.0109007 
position of yplus max: -12.0304 -1.28988 1.94884 
yplus prom: 3.10975 
forces: 3086.453712 0.017793 -879.455890 
Drag coefficient: 0.861333 
torque (ref. CG): -0.024910 (roll) -1043.645733 (pitch) -0.108536 (yaw) 
----------------------------------------------------- 
step 54, time 0.027000, maxvel 30.000000, total vol 183257, vol(u>maxvel) 7.55332, cell count 1487438
bounding box (containing cells with vel>maxvel): xmin -12.2622 -1.77126 -0.502914, xmax 0.493727 1.77126 4.0261m 
bounding box of vehicle: xmin -12.2 -1.30008 -6.44084e-18, xmax 6.64751e-18 1.30008 3.6m 
gts area: 163.426 
yplus max: 131.088, yplus min: 0.0288623 
position of yplus max: -12.0304 -1.28988 1.94884 
yplus prom: 3.11019 
forces: 3079.716421 0.019144 -879.065442 
Drag coefficient: 0.859453 
torque (ref. CG): -0.026801 (roll) -1050.696204 (pitch) -0.116777 (yaw) 
----------------------------------------------------- 
step 55, time 0.027500, maxvel 30.000000, total vol 183257, vol(u>maxvel) 7.53223, cell count 1480295
bounding box (containing cells with vel>maxvel): xmin -12.2622 -1.77119 -0.502914, xmax 0.493829 1.77118 4.0261m 
bounding box of vehicle: xmin -12.2 -1.30008 -6.44084e-18, xmax 6.64751e-18 1.30008 3.6m 
gts area: 163.426 
yplus max: 131.077, yplus min: 0.0352477 
position of yplus max: -12.0304 -1.28988 1.94884 
yplus prom: 3.11056 
forces: 3072.936880 0.017300 -878.654174 
Drag coefficient: 0.857561 
torque (ref. CG): -0.024219 (roll) -1057.678828 (pitch) -0.105527 (yaw) 
----------------------------------------------------- 
step 56, time 0.028000, maxvel 30.000000, total vol 183257, vol(u>maxvel) 7.50861, cell count 1472968
bounding box (containing cells with vel>maxvel): xmin -12.2622 -1.77119 -0.502914, xmax 0.493877 1.77118 4.0261m 
bounding box of vehicle: xmin -12.2 -1.30008 -6.44084e-18, xmax 6.64751e-18 1.30008 3.6m 
gts area: 163.426 
yplus max: 131.066, yplus min: 0.0240864 
position of yplus max: -12.0304 -1.28988 1.94884 
yplus prom: 3.11086 
forces: 3066.085320 0.017484 -878.312914 
Drag coefficient: 0.855649 
torque (ref. CG): -0.024478 (roll) -1065.189328 (pitch) -0.106655 (yaw) 
----------------------------------------------------- 
step 57, time 0.028500, maxvel 30.000000, total vol 183257, vol(u>maxvel) 7.48821, cell count 1465839
bounding box (containing cells with vel>maxvel): xmin -12.2622 -1.77111 -0.502914, xmax 0.493877 1.7711 4.0261m 
bounding box of vehicle: xmin -12.2 -1.30008 -6.44084e-18, xmax 6.64751e-18 1.30008 3.6m 
gts area: 163.426 
yplus max: 131.055, yplus min: 0.0109549 
position of yplus max: -12.0304 -1.28988 1.94884 
yplus prom: 3.1111 
forces: 3059.096912 0.018806 -877.914335 
Drag coefficient: 0.853699 
torque (ref. CG): -0.026329 (roll) -1072.541769 (pitch) -0.114717 (yaw) 
----------------------------------------------------- 
step 58, time 0.029000, maxvel 30.000000, total vol 183257, vol(u>maxvel) 7.46484, cell count 1458472
bounding box (containing cells with vel>maxvel): xmin -12.2622 -1.77102 -0.503245, xmax 0.493924 1.77103 4.02609m 
bounding box of vehicle: xmin -12.2 -1.30008 -6.44084e-18, xmax 6.64751e-18 1.30008 3.6m 
gts area: 163.426 
yplus max: 131.044, yplus min: 0.0105723 
position of yplus max: -12.0304 -1.28988 1.94884 
yplus prom: 3.11128 
forces: 3052.096943 0.016641 -877.554275 
Drag coefficient: 0.851745 
torque (ref. CG): -0.023297 (roll) -1080.145360 (pitch) -0.101509 (yaw) 
----------------------------------------------------- 
step 59, time 0.029500, maxvel 30.000000, total vol 183257, vol(u>maxvel) 7.43362, cell count 1450285
bounding box (containing cells with vel>maxvel): xmin -12.2622 -1.77093 -0.503245, xmax 0.493966 1.77094 4.02609m 
bounding box of vehicle: xmin -12.2 -1.30008 -6.44084e-18, xmax 6.64751e-18 1.30008 3.6m 
gts area: 163.426 
yplus max: 131.033, yplus min: 0.0210712 
position of yplus max: -12.0304 -1.28988 1.94884 
yplus prom: 3.11139 
forces: 3045.020929 0.015712 -877.157521 
Drag coefficient: 0.849771 
torque (ref. CG): -0.021997 (roll) -1087.631579 (pitch) -0.095842 (yaw) 
----------------------------------------------------- 
step 60, time 0.030000, maxvel 30.000000, total vol 183257, vol(u>maxvel) 7.40429, cell count 1443098
bounding box (containing cells with vel>maxvel): xmin -12.2621 -1.77074 -0.503245, xmax 0.493966 1.77075 4.02609m 
bounding box of vehicle: xmin -12.2 -1.30008 -6.44084e-18, xmax 6.64751e-18 1.30008 3.6m 
gts area: 163.426 
yplus max: 131.022, yplus min: 0.0258076 
position of yplus max: -12.0304 -1.28988 1.94884 
yplus prom: 3.11147 
forces: 3037.816152 0.014834 -876.750263 
Drag coefficient: 0.847760 
torque (ref. CG): -0.020767 (roll) -1095.233989 (pitch) -0.090486 (yaw) 
----------------------------------------------------- 
step 61, time 0.030500, maxvel 30.000000, total vol 183257, vol(u>maxvel) 7.37222, cell count 1435254
bounding box (containing cells with vel>maxvel): xmin -12.2621 -1.77024 -0.503245, xmax 0.494264 1.77043 4.02424m 
bounding box of vehicle: xmin -12.2 -1.30008 -6.44084e-18, xmax 6.64751e-18 1.30008 3.6m 
gts area: 163.426 
yplus max: 131.011, yplus min: 0.0221208 
position of yplus max: -12.0304 -1.28988 1.94884 
yplus prom: 3.11149 
forces: 3030.596031 0.013231 -876.349346 
Drag coefficient: 0.845745 
torque (ref. CG): -0.018523 (roll) -1102.896567 (pitch) -0.080708 (yaw) 
----------------------------------------------------- 
step 62, time 0.031000, maxvel 30.000000, total vol 183257, vol(u>maxvel) 7.34133, cell count 1426725
bounding box (containing cells with vel>maxvel): xmin -12.2621 -1.77011 -0.503245, xmax 0.494344 1.77027 4.02424m 
bounding box of vehicle: xmin -12.2 -1.30008 -6.44084e-18, xmax 6.64751e-18 1.30008 3.6m 
gts area: 163.426 
yplus max: 131.001, yplus min: 0.00745342 
position of yplus max: -12.0304 -1.28988 1.94884 
yplus prom: 3.11147 
forces: 3023.280011 0.012420 -876.020703 
Drag coefficient: 0.843703 
torque (ref. CG): -0.017388 (roll) -1111.134272 (pitch) -0.075762 (yaw) 
----------------------------------------------------- 
step 63, time 0.031500, maxvel 30.000000, total vol 183257, vol(u>maxvel) 7.31405, cell count 1418984
bounding box (containing cells with vel>maxvel): xmin -12.2621 -1.77011 -0.503245, xmax 0.494347 1.77027 3.95614m 
bounding box of vehicle: xmin -12.2 -1.30008 -6.44084e-18, xmax 6.64751e-18 1.30008 3.6m 
gts area: 163.426 
yplus max: 130.99, yplus min: 0.0299911 
position of yplus max: -12.0304 -1.28988 1.94884 
yplus prom: 3.11142 
forces: 3015.921695 0.014821 -875.640099 
Drag coefficient: 0.841650 
torque (ref. CG): -0.020750 (roll) -1119.114230 (pitch) -0.090410 (yaw) 
----------------------------------------------------- 
step 64, time 0.032000, maxvel 30.000000, total vol 183257, vol(u>maxvel) 7.29998, cell count 1411006
bounding box (containing cells with vel>maxvel): xmin -12.2621 -1.77011 -0.503245, xmax 0.494353 1.77027 3.95614m 
bounding box of vehicle: xmin -12.2 -1.30008 -6.44084e-18, xmax 6.64751e-18 1.30008 3.6m 
gts area: 163.426 
yplus max: 130.98, yplus min: 0.0157911 
position of yplus max: -12.0304 -1.28988 1.94884 
yplus prom: 3.11132 
forces: 3008.571406 0.013555 -875.320857 
Drag coefficient: 0.839599 
torque (ref. CG): -0.018977 (roll) -1127.457260 (pitch) -0.082684 (yaw) 
----------------------------------------------------- 
step 65, time 0.032500, maxvel 30.000000, total vol 183257, vol(u>maxvel) 7.28367, cell count 1402600
bounding box (containing cells with vel>maxvel): xmin -12.2621 -1.77011 -0.503245, xmax 0.495389 1.77027 3.95614m 
bounding box of vehicle: xmin -12.2 -1.30008 -6.44084e-18, xmax 6.64751e-18 1.30008 3.6m 
gts area: 163.426 
yplus max: 130.969, yplus min: 0.0283422 
position of yplus max: -12.0304 -1.28988 1.94884 
yplus prom: 3.11119 
forces: 3001.125309 0.012626 -875.001626 
Drag coefficient: 0.837521 
torque (ref. CG): -0.017677 (roll) -1135.934488 (pitch) -0.077021 (yaw) 
----------------------------------------------------- 
step 66, time 0.033000, maxvel 30.000000, total vol 183257, vol(u>maxvel) 7.27845, cell count 1393906
bounding box (containing cells with vel>maxvel): xmin -12.2621 -1.77011 -0.503245, xmax 0.495685 1.77027 3.95614m 
bounding box of vehicle: xmin -12.2 -1.30008 -6.44084e-18, xmax 6.64751e-18 1.30008 3.6m 
gts area: 163.426 
yplus max: 130.959, yplus min: 0.0287491 
position of yplus max: -12.0304 -1.28988 1.94884 
yplus prom: 3.11104 
forces: 2993.627419 0.010887 -874.666676 
Drag coefficient: 0.835428 
torque (ref. CG): -0.015242 (roll) -1144.388335 (pitch) -0.066412 (yaw) 
----------------------------------------------------- 
step 67, time 0.033500, maxvel 30.000000, total vol 183257, vol(u>maxvel) 7.26427, cell count 1385908
bounding box (containing cells with vel>maxvel): xmin -12.2621 -1.77011 -0.503245, xmax 0.568205 1.77027 3.95612m 
bounding box of vehicle: xmin -12.2 -1.30008 -6.44084e-18, xmax 6.64751e-18 1.30008 3.6m 
gts area: 163.426 
yplus max: 130.95, yplus min: 0.0298275 
position of yplus max: -12.0304 -1.28988 1.94884 
yplus prom: 3.11086 
forces: 2986.107805 0.010663 -874.312022 
Drag coefficient: 0.833330 
torque (ref. CG): -0.014928 (roll) -1152.752405 (pitch) -0.065045 (yaw) 
----------------------------------------------------- 
step 68, time 0.034000, maxvel 30.000000, total vol 183257, vol(u>maxvel) 7.24726, cell count 1377841
bounding box (containing cells with vel>maxvel): xmin -12.2621 -1.77011 -0.503245, xmax 0.568344 1.77027 3.95609m 
bounding box of vehicle: xmin -12.2 -1.30008 -6.44084e-18, xmax 6.64751e-18 1.30008 3.6m 
gts area: 163.426 
yplus max: 130.94, yplus min: 0.0309605 
position of yplus max: -12.0304 -1.28988 1.94884 
yplus prom: 3.11065 
forces: 2978.487147 0.009009 -874.016338 
Drag coefficient: 0.831203 
torque (ref. CG): -0.012612 (roll) -1161.617654 (pitch) -0.054953 (yaw) 
----------------------------------------------------- 
step 69, time 0.034500, maxvel 30.000000, total vol 183257, vol(u>maxvel) 7.23284, cell count 1369138
bounding box (containing cells with vel>maxvel): xmin -12.2621 -1.77011 -0.503245, xmax 0.568472 1.77009 3.95381m 
bounding box of vehicle: xmin -12.2 -1.30008 -6.44084e-18, xmax 6.64751e-18 1.30008 3.6m 
gts area: 163.426 
yplus max: 130.931, yplus min: 0.0306387 
position of yplus max: -12.0304 -1.28988 1.94884 
yplus prom: 3.1104 
forces: 2970.854269 0.005954 -873.762786 
Drag coefficient: 0.829073 
torque (ref. CG): -0.008336 (roll) -1170.757020 (pitch) -0.036319 (yaw) 
----------------------------------------------------- 
step 70, time 0.035000, maxvel 30.000000, total vol 183257, vol(u>maxvel) 7.21162, cell count 1361214
bounding box (containing cells with vel>maxvel): xmin -12.2621 -1.76996 -0.503245, xmax 0.568529 1.77009 3.95381m 
bounding box of vehicle: xmin -12.2 -1.30008 -6.44084e-18, xmax 6.64751e-18 1.30008 3.6m 
gts area: 163.426 
yplus max: 130.921, yplus min: 0.0303098 
position of yplus max: -12.0304 -1.28988 1.94884 
yplus prom: 3.11011 
forces: 2963.427248 0.008731 -873.493211 
Drag coefficient: 0.827000 
torque (ref. CG): -0.012223 (roll) -1179.510439 (pitch) -0.053256 (yaw) 
----------------------------------------------------- 
step 71, time 0.035500, maxvel 30.000000, total vol 183257, vol(u>maxvel) 7.19087, cell count 1352922
bounding box (containing cells with vel>maxvel): xmin -12.2621 -1.76996 -0.503245, xmax 0.568529 1.77009 3.95381m 
bounding box of vehicle: xmin -12.2 -1.30008 -6.44084e-18, xmax 6.64751e-18 1.30008 3.6m 
gts area: 163.426 
yplus max: 130.912, yplus min: 0.0299813 
position of yplus max: -12.0304 -1.28988 1.94884 
yplus prom: 3.10978 
forces: 2956.077620 0.013315 -873.191371 
Drag coefficient: 0.824949 
torque (ref. CG): -0.018641 (roll) -1187.958694 (pitch) -0.081223 (yaw) 
----------------------------------------------------- 
step 72, time 0.036000, maxvel 30.000000, total vol 183257, vol(u>maxvel) 7.17224, cell count 1344129
bounding box (containing cells with vel>maxvel): xmin -12.2621 -1.76996 -0.503245, xmax 0.568585 1.77009 3.95381m 
bounding box of vehicle: xmin -12.2 -1.30008 -6.44084e-18, xmax 6.64751e-18 1.30008 3.6m 
gts area: 163.426 
yplus max: 130.903, yplus min: 0.0276704 
position of yplus max: -12.0304 -1.28988 1.94884 
yplus prom: 3.10942 
forces: 2948.723696 0.006114 -872.909724 
Drag coefficient: 0.822897 
torque (ref. CG): -0.008560 (roll) -1196.536139 (pitch) -0.037298 (yaw) 
----------------------------------------------------- 
step 73, time 0.036500, maxvel 30.000000, total vol 183257, vol(u>maxvel) 7.13622, cell count 1335799
bounding box (containing cells with vel>maxvel): xmin -12.2621 -1.76996 -0.503245, xmax 0.568639 1.77009 3.95381m 
bounding box of vehicle: xmin -12.2 -1.30008 -6.44084e-18, xmax 6.64751e-18 1.30008 3.6m 
gts area: 163.426 
yplus max: 130.895, yplus min: 0.0279411 
position of yplus max: -12.0304 -1.28988 1.94884 
yplus prom: 3.10904 
forces: 2941.339228 0.008332 -872.665570 
Drag coefficient: 0.820836 
torque (ref. CG): -0.011665 (roll) -1205.385056 (pitch) -0.050828 (yaw) 
----------------------------------------------------- 
step 74, time 0.037000, maxvel 30.000000, total vol 183257, vol(u>maxvel) 7.1215, cell count 1327785
bounding box (containing cells with vel>maxvel): xmin -12.2621 -1.76996 -0.503245, xmax 0.568639 1.77009 3.95381m 
bounding box of vehicle: xmin -12.2 -1.30008 -6.44084e-18, xmax 6.64751e-18 1.30008 3.6m 
gts area: 163.426 
yplus max: 130.887, yplus min: 0.0290098 
position of yplus max: -12.0304 -1.28988 1.94884 
yplus prom: 3.10862 
forces: 2934.138622 0.001276 -872.474878 
Drag coefficient: 0.818827 
torque (ref. CG): -0.001786 (roll) -1214.302686 (pitch) -0.007783 (yaw) 
----------------------------------------------------- 
step 75, time 0.037500, maxvel 30.000000, total vol 183257, vol(u>maxvel) 7.1035, cell count 1319613
bounding box (containing cells with vel>maxvel): xmin -12.2621 -1.76979 -0.503245, xmax 0.568689 1.7699 3.95381m 
bounding box of vehicle: xmin -12.2 -1.30008 -6.44084e-18, xmax 6.64751e-18 1.30008 3.6m 
gts area: 163.426 
yplus max: 130.878, yplus min: 0.0286827 
position of yplus max: -12.0304 -1.28988 1.94884 
yplus prom: 3.10819 
forces: 2927.048757 0.012049 -872.276894 
Drag coefficient: 0.816848 
torque (ref. CG): -0.016869 (roll) -1223.020792 (pitch) -0.073502 (yaw) 
----------------------------------------------------- 
step 76, time 0.038000, maxvel 30.000000, total vol 183257, vol(u>maxvel) 7.0811, cell count 1311989
bounding box (containing cells with vel>maxvel): xmin -12.2621 -1.76979 -0.503245, xmax 0.568689 1.7699 3.95381m 
bounding box of vehicle: xmin -12.2 -1.30008 -6.44084e-18, xmax 6.64751e-18 1.30008 3.6m 
gts area: 163.426 
yplus max: 130.87, yplus min: 0.0283637 
position of yplus max: -12.0304 -1.28988 1.94884 
yplus prom: 3.10773 
forces: 2920.049457 -0.000426 -872.074148 
Drag coefficient: 0.814895 
torque (ref. CG): 0.000597 (roll) -1231.583066 (pitch) 0.002601 (yaw) 
----------------------------------------------------- 
step 77, time 0.038500, maxvel 30.000000, total vol 183257, vol(u>maxvel) 7.06179, cell count 1304189
bounding box (containing cells with vel>maxvel): xmin -12.2621 -1.76979 -0.503245, xmax 0.568689 1.7699 3.95381m 
bounding box of vehicle: xmin -12.2 -1.30008 -6.44084e-18, xmax 6.64751e-18 1.30008 3.6m 
gts area: 163.426 
yplus max: 130.863, yplus min: 0.0280398 
position of yplus max: -12.0304 -1.28988 1.94884 
yplus prom: 3.10726 
forces: 2912.897800 0.011906 -871.809839 
Drag coefficient: 0.812899 
torque (ref. CG): -0.016669 (roll) -1239.983095 (pitch) -0.072627 (yaw) 
----------------------------------------------------- 
step 78, time 0.039000, maxvel 30.000000, total vol 183257, vol(u>maxvel) 7.03812, cell count 1296393
bounding box (containing cells with vel>maxvel): xmin -12.2621 -1.76572 -0.503245, xmax 0.568736 1.76572 3.95381m 
bounding box of vehicle: xmin -12.2 -1.30008 -6.44084e-18, xmax 6.64751e-18 1.30008 3.6m 
gts area: 163.426 
yplus max: 130.855, yplus min: 0.0277229 
position of yplus max: -12.0304 -1.28988 1.94884 
yplus prom: 3.10677 
forces: 2905.865153 -0.001814 -871.589345 
Drag coefficient: 0.810936 
torque (ref. CG): 0.002539 (roll) -1248.483791 (pitch) 0.011064 (yaw) 
----------------------------------------------------- 
step 79, time 0.039500, maxvel 30.000000, total vol 183257, vol(u>maxvel) 7.00969, cell count 1288522
bounding box (containing cells with vel>maxvel): xmin -12.2621 -1.76568 -0.503245, xmax 0.568736 1.76569 3.95381m 
bounding box of vehicle: xmin -12.2 -1.30008 -6.44084e-18, xmax 6.64751e-18 1.30008 3.6m 
gts area: 163.426 
yplus max: 130.848, yplus min: 0.0257548 
position of yplus max: -12.0304 -1.28988 1.94884 
yplus prom: 3.10626 
forces: 2898.661567 0.008698 -871.348471 
Drag coefficient: 0.808926 
torque (ref. CG): -0.012177 (roll) -1257.099481 (pitch) -0.053056 (yaw) 
----------------------------------------------------- 
step 80, time 0.040000, maxvel 30.000000, total vol 183257, vol(u>maxvel) 6.97256, cell count 1281452
bounding box (containing cells with vel>maxvel): xmin -12.2621 -1.76561 -0.503245, xmax 0.568736 1.76561 3.95381m 
bounding box of vehicle: xmin -12.2 -1.30008 -6.44084e-18, xmax 6.64751e-18 1.30008 3.6m 
gts area: 163.426 
yplus max: 130.841, yplus min: 0.0270905 
position of yplus max: -12.0304 -1.28988 1.94884 
yplus prom: 3.10574 
forces: 2891.664433 -0.005950 -871.158014 
Drag coefficient: 0.806973 
torque (ref. CG): 0.008330 (roll) -1265.733676 (pitch) 0.036294 (yaw) 
----------------------------------------------------- 
step 81, time 0.040500, maxvel 30.000000, total vol 183257, vol(u>maxvel) 6.95134, cell count 1274402
bounding box (containing cells with vel>maxvel): xmin -12.2621 -1.6962 -0.503245, xmax 0.569179 1.69623 3.95381m 
bounding box of vehicle: xmin -12.2 -1.30008 -6.44084e-18, xmax 6.64751e-18 1.30008 3.6m 
gts area: 163.426 
yplus max: 130.834, yplus min: 0.0267775 
position of yplus max: -12.0304 -1.28988 1.94884 
yplus prom: 3.10521 
forces: 2884.582553 0.009605 -870.907474 
Drag coefficient: 0.804997 
torque (ref. CG): -0.013447 (roll) -1274.120016 (pitch) -0.058589 (yaw) 
----------------------------------------------------- 
step 82, time 0.041000, maxvel 30.000000, total vol 183257, vol(u>maxvel) 6.93897, cell count 1267473
bounding box (containing cells with vel>maxvel): xmin -12.2621 -1.6962 -0.503245, xmax 0.642745 1.69623 3.95381m 
bounding box of vehicle: xmin -12.2 -1.30008 -6.44084e-18, xmax 6.64751e-18 1.30008 3.6m 
gts area: 163.426 
yplus max: 130.827, yplus min: 0.0264703 
position of yplus max: -12.0304 -1.28988 1.94884 
yplus prom: 3.10466 
forces: 2877.703106 -0.007279 -870.694291 
Drag coefficient: 0.803077 
torque (ref. CG): 0.010191 (roll) -1282.450828 (pitch) 0.044403 (yaw) 
----------------------------------------------------- 
step 83, time 0.041500, maxvel 30.000000, total vol 183257, vol(u>maxvel) 6.92357, cell count 1260456
bounding box (containing cells with vel>maxvel): xmin -12.2621 -1.6962 -0.503245, xmax 0.642909 1.69623 3.95381m 
bounding box of vehicle: xmin -12.2 -1.30008 -6.44084e-18, xmax 6.64751e-18 1.30008 3.6m 
gts area: 163.426 
yplus max: 130.82, yplus min: 0.0261638 
position of yplus max: -12.0304 -1.28988 1.94884 
yplus prom: 3.10409 
forces: 2870.726641 0.009176 -870.428316 
Drag coefficient: 0.801130 
torque (ref. CG): -0.012847 (roll) -1290.595428 (pitch) -0.055977 (yaw) 
----------------------------------------------------- 
step 84, time 0.042000, maxvel 30.000000, total vol 183257, vol(u>maxvel) 6.90923, cell count 1253115
bounding box (containing cells with vel>maxvel): xmin -12.2621 -1.6962 -0.503245, xmax 0.643065 1.69623 3.95381m 
bounding box of vehicle: xmin -12.2 -1.30008 -6.44084e-18, xmax 6.64751e-18 1.30008 3.6m 
gts area: 163.426 
yplus max: 130.814, yplus min: 0.0258664 
position of yplus max: -12.0304 -1.28988 1.94884 
yplus prom: 3.1035 
forces: 2863.980833 -0.009340 -870.207742 
Drag coefficient: 0.799248 
torque (ref. CG): 0.013076 (roll) -1298.694059 (pitch) 0.056973 (yaw) 
----------------------------------------------------- 
step 85, time 0.042500, maxvel 30.000000, total vol 183257, vol(u>maxvel) 6.89424, cell count 1245768
bounding box (containing cells with vel>maxvel): xmin -12.2621 -1.6962 -0.503245, xmax 0.643137 1.69623 3.95381m 
bounding box of vehicle: xmin -12.2 -1.30008 -6.44084e-18, xmax 6.64751e-18 1.30008 3.6m 
gts area: 163.426 
yplus max: 130.807, yplus min: 0.0255698 
position of yplus max: -12.0304 -1.28988 1.94884 
yplus prom: 3.1029 
forces: 2857.236400 0.010071 -869.906638 
Drag coefficient: 0.797366 
torque (ref. CG): -0.014100 (roll) -1306.299532 (pitch) -0.061436 (yaw) 
----------------------------------------------------- 
step 86, time 0.043000, maxvel 30.000000, total vol 183257, vol(u>maxvel) 6.88293, cell count 1238920
bounding box (containing cells with vel>maxvel): xmin -12.2621 -1.6962 -0.503245, xmax 0.643204 1.69623 3.95381m 
bounding box of vehicle: xmin -12.2 -1.30008 -6.44084e-18, xmax 6.64751e-18 1.30008 3.6m 
gts area: 163.426 
yplus max: 130.801, yplus min: 0.0252838 
position of yplus max: -12.0304 -1.28988 1.94884 
yplus prom: 3.10228 
forces: 2850.752852 -0.008491 -869.645293 
Drag coefficient: 0.795556 
torque (ref. CG): 0.011888 (roll) -1313.782295 (pitch) 0.051798 (yaw) 
----------------------------------------------------- 
step 87, time 0.043500, maxvel 30.000000, total vol 183257, vol(u>maxvel) 6.86351, cell count 1231785
bounding box (containing cells with vel>maxvel): xmin -12.2621 -1.6962 -0.503245, xmax 0.643204 1.69623 3.95381m 
bounding box of vehicle: xmin -12.2 -1.30008 -6.44084e-18, xmax 6.64751e-18 1.30008 3.6m 
gts area: 163.426 
yplus max: 130.795, yplus min: 0.0250005 
position of yplus max: -12.0304 -1.28988 1.94884 
yplus prom: 3.10165 
forces: 2844.203627 0.008664 -869.321438 
Drag coefficient: 0.793729 
torque (ref. CG): -0.012129 (roll) -1320.975693 (pitch) -0.052849 (yaw) 
----------------------------------------------------- 
step 88, time 0.044000, maxvel 30.000000, total vol 183257, vol(u>maxvel) 6.8448, cell count 1224581
bounding box (containing cells with vel>maxvel): xmin -12.2621 -1.6962 -0.503245, xmax 0.643269 1.69623 3.95381m 
bounding box of vehicle: xmin -12.2 -1.30008 -6.44084e-18, xmax 6.64751e-18 1.30008 3.6m 
gts area: 163.426 
yplus max: 130.79, yplus min: 0.0247298 
position of yplus max: -12.0304 -1.28988 1.94884 
yplus prom: 3.10101 
forces: 2837.805693 -0.009570 -869.043703 
Drag coefficient: 0.791943 
torque (ref. CG): 0.013398 (roll) -1328.238618 (pitch) 0.058379 (yaw) 
----------------------------------------------------- 
step 89, time 0.044500, maxvel 30.000000, total vol 183257, vol(u>maxvel) 6.82017, cell count 1217248
bounding box (containing cells with vel>maxvel): xmin -12.2621 -1.6962 -0.503245, xmax 0.643269 1.69623 3.9538m 
bounding box of vehicle: xmin -12.2 -1.30008 -6.44084e-18, xmax 6.64751e-18 1.30008 3.6m 
gts area: 163.426 
yplus max: 130.784, yplus min: 0.0244642 
position of yplus max: -12.0304 -1.28988 1.94884 
yplus prom: 3.10035 
forces: 2831.332017 0.003504 -868.711839 
Drag coefficient: 0.790137 
torque (ref. CG): -0.004906 (roll) -1335.277393 (pitch) -0.021375 (yaw) 
----------------------------------------------------- 
step 90, time 0.045000, maxvel 30.000000, total vol 183257, vol(u>maxvel) 6.79991, cell count 1210155
bounding box (containing cells with vel>maxvel): xmin -12.2621 -1.6962 -0.503245, xmax 0.643331 1.69623 3.9538m 
bounding box of vehicle: xmin -12.2 -1.30008 -6.44084e-18, xmax 6.64751e-18 1.30008 3.6m 
gts area: 163.426 
yplus max: 130.779, yplus min: 0.0242121 
position of yplus max: -12.0304 -1.28988 1.94884 
yplus prom: 3.09968 
forces: 2825.019512 -0.003803 -868.402273 
Drag coefficient: 0.788375 
torque (ref. CG): 0.005324 (roll) -1342.226549 (pitch) 0.023198 (yaw) 
----------------------------------------------------- 
step 91, time 0.045500, maxvel 30.000000, total vol 183257, vol(u>maxvel) 6.77225, cell count 1203215
bounding box (containing cells with vel>maxvel): xmin -12.2621 -1.6962 -0.503245, xmax 0.643331 1.69623 3.9538m 
bounding box of vehicle: xmin -12.2 -1.30008 -6.44084e-18, xmax 6.64751e-18 1.30008 3.6m 
gts area: 163.426 
yplus max: 130.773, yplus min: 0.0239691 
position of yplus max: -12.0304 -1.28988 1.94884 
yplus prom: 3.099 
forces: 2818.740127 0.004692 -868.045053 
Drag coefficient: 0.786623 
torque (ref. CG): -0.006569 (roll) -1348.838647 (pitch) -0.028622 (yaw) 
----------------------------------------------------- 
step 92, time 0.046000, maxvel 30.000000, total vol 183257, vol(u>maxvel) 6.74475, cell count 1196207
bounding box (containing cells with vel>maxvel): xmin -12.2621 -1.6962 -0.503245, xmax 0.643389 1.69623 3.95377m 
bounding box of vehicle: xmin -12.2 -1.30008 -6.44084e-18, xmax 6.64751e-18 1.30008 3.6m 
gts area: 163.426 
yplus max: 130.768, yplus min: 0.0237364 
position of yplus max: -12.0304 -1.28988 1.94884 
yplus prom: 3.09832 
forces: 2812.513741 -0.006220 -867.701258 
Drag coefficient: 0.784885 
torque (ref. CG): 0.008708 (roll) -1355.458434 (pitch) 0.037943 (yaw) 
----------------------------------------------------- 
step 93, time 0.046500, maxvel 30.000000, total vol 183257, vol(u>maxvel) 6.72315, cell count 1188378
bounding box (containing cells with vel>maxvel): xmin -12.2621 -1.6962 -0.503245, xmax 0.643389 1.69623 3.9506m 
bounding box of vehicle: xmin -12.2 -1.30008 -6.44084e-18, xmax 6.64751e-18 1.30008 3.6m 
gts area: 163.426 
yplus max: 130.763, yplus min: 0.0235264 
position of yplus max: -12.0304 -1.28988 1.94884 
yplus prom: 3.09762 
forces: 2806.450217 -0.000143 -867.355499 
Drag coefficient: 0.783193 
torque (ref. CG): 0.000200 (roll) -1361.838242 (pitch) 0.000873 (yaw) 
----------------------------------------------------- 
step 94, time 0.047000, maxvel 30.000000, total vol 183257, vol(u>maxvel) 6.69651, cell count 1180127
bounding box (containing cells with vel>maxvel): xmin -12.2621 -1.6962 -0.503245, xmax 0.643389 1.69623 3.9506m 
bounding box of vehicle: xmin -12.2 -1.30008 -6.44084e-18, xmax 6.64751e-18 1.30008 3.6m 
gts area: 163.426 
yplus max: 130.758, yplus min: 0.0233251 
position of yplus max: -12.0304 -1.28988 1.94884 
yplus prom: 3.09692 
forces: 2800.419851 -0.001736 -866.998324 
Drag coefficient: 0.781510 
torque (ref. CG): 0.002431 (roll) -1368.101987 (pitch) 0.010592 (yaw) 
----------------------------------------------------- 
step 95, time 0.047500, maxvel 30.000000, total vol 183257, vol(u>maxvel) 6.67762, cell count 1172325
bounding box (containing cells with vel>maxvel): xmin -12.2621 -1.6962 -0.503245, xmax 0.643389 1.69623 3.9506m 
bounding box of vehicle: xmin -12.2 -1.30008 -6.44084e-18, xmax 6.64751e-18 1.30008 3.6m 
gts area: 163.426 
yplus max: 130.753, yplus min: 0.0231377 
position of yplus max: -12.0304 -1.28988 1.94884 
yplus prom: 3.09621 
forces: 2794.375480 0.005950 -866.602539 
Drag coefficient: 0.779823 
torque (ref. CG): -0.008330 (roll) -1374.149816 (pitch) -0.036294 (yaw) 
----------------------------------------------------- 
step 96, time 0.048000, maxvel 30.000000, total vol 183257, vol(u>maxvel) 6.65517, cell count 1163229
bounding box (containing cells with vel>maxvel): xmin -12.2621 -1.6962 -0.503245, xmax 0.643444 1.69623 3.9506m 
bounding box of vehicle: xmin -12.2 -1.30008 -6.44084e-18, xmax 6.64751e-18 1.30008 3.6m 
gts area: 163.426 
yplus max: 130.749, yplus min: 0.0229768 
position of yplus max: -12.0304 -1.28988 1.94884 
yplus prom: 3.09551 
forces: 2788.439182 -0.016802 -866.278870 
Drag coefficient: 0.778167 
torque (ref. CG): 0.023523 (roll) -1380.486250 (pitch) 0.102492 (yaw) 
----------------------------------------------------- 
step 97, time 0.048500, maxvel 30.000000, total vol 183257, vol(u>maxvel) 6.63174, cell count 1154292
bounding box (containing cells with vel>maxvel): xmin -12.2621 -1.6962 -0.503245, xmax 0.643444 1.69623 3.9506m 
bounding box of vehicle: xmin -12.2 -1.30008 -6.44084e-18, xmax 6.64751e-18 1.30008 3.6m 
gts area: 163.426 
yplus max: 130.744, yplus min: 0.022832 
position of yplus max: -12.0304 -1.28988 1.94884 
yplus prom: 3.09479 
forces: 2782.505037 0.008987 -865.916284 
Drag coefficient: 0.776511 
torque (ref. CG): -0.012581 (roll) -1386.582278 (pitch) -0.054819 (yaw) 
----------------------------------------------------- 
step 98, time 0.049000, maxvel 30.000000, total vol 183257, vol(u>maxvel) 6.61953, cell count 1145665
bounding box (containing cells with vel>maxvel): xmin -12.2621 -1.6962 -0.503245, xmax 0.643444 1.69623 3.9506m 
bounding box of vehicle: xmin -12.2 -1.30008 -6.44084e-18, xmax 6.64751e-18 1.30008 3.6m 
gts area: 163.426 
yplus max: 130.74, yplus min: 0.0227064 
position of yplus max: -12.0304 -1.28988 1.94884 
yplus prom: 3.09407 
forces: 2776.667348 -0.005213 -865.556301 
Drag coefficient: 0.774881 
torque (ref. CG): 0.007298 (roll) -1392.559146 (pitch) 0.031798 (yaw) 
----------------------------------------------------- 
step 99, time 0.049500, maxvel 30.000000, total vol 183257, vol(u>maxvel) 6.59567, cell count 1137124
bounding box (containing cells with vel>maxvel): xmin -12.2621 -1.6962 -0.503245, xmax 0.717532 1.69623 3.9506m 
bounding box of vehicle: xmin -12.2 -1.30008 -6.44084e-18, xmax 6.64751e-18 1.30008 3.6m 
gts area: 163.426 
yplus max: 130.735, yplus min: 0.0226034 
position of yplus max: -12.0304 -1.28988 1.94884 
yplus prom: 3.09334 
forces: 2770.859237 -0.003166 -865.193686 
Drag coefficient: 0.773261 
torque (ref. CG): 0.004433 (roll) -1398.478552 (pitch) 0.019315 (yaw) 
----------------------------------------------------- 
step 100, time 0.050000, maxvel 30.000000, total vol 183257, vol(u>maxvel) 6.57237, cell count 1128956
bounding box (containing cells with vel>maxvel): xmin -12.2621 -1.6962 -0.503245, xmax 0.717628 1.69623 3.9506m 
bounding box of vehicle: xmin -12.2 -1.30008 -6.44084e-18, xmax 6.64751e-18 1.30008 3.6m 
gts area: 163.426 
yplus max: 130.731, yplus min: 0.0225248 
position of yplus max: -12.0304 -1.28988 1.94884 
yplus prom: 3.09261 
forces: 2765.121848 -0.003159 -864.825548 
Drag coefficient: 0.771659 
torque (ref. CG): 0.004423 (roll) -1404.265258 (pitch) 0.019271 (yaw) 
----------------------------------------------------- 
step 101, time 0.050500, maxvel 30.000000, total vol 183257, vol(u>maxvel) 6.55051, cell count 1120809
bounding box (containing cells with vel>maxvel): xmin -12.2621 -1.6962 -0.503245, xmax 0.717712 1.69623 3.9506m 
bounding box of vehicle: xmin -12.2 -1.30008 -6.44084e-18, xmax 6.64751e-18 1.30008 3.6m 
gts area: 163.426 
yplus max: 130.727, yplus min: 0.0224692 
position of yplus max: -12.0304 -1.28988 1.94884 
yplus prom: 3.09188 
forces: 2759.456231 -0.003438 -864.453070 
Drag coefficient: 0.770078 
torque (ref. CG): 0.004813 (roll) -1409.925005 (pitch) 0.020972 (yaw) 
----------------------------------------------------- 
step 102, time 0.051000, maxvel 30.000000, total vol 183257, vol(u>maxvel) 6.53448, cell count 1113023
bounding box (containing cells with vel>maxvel): xmin -12.2621 -1.6962 -0.503245, xmax 0.717789 1.69623 3.9506m 
bounding box of vehicle: xmin -12.2 -1.30008 -6.44084e-18, xmax 6.64751e-18 1.30008 3.6m 
gts area: 163.426 
yplus max: 130.723, yplus min: 0.0224386 
position of yplus max: -12.0304 -1.28988 1.94884 
yplus prom: 3.09114 
forces: 2753.866022 -0.004632 -864.066769 
Drag coefficient: 0.768518 
torque (ref. CG): 0.006485 (roll) -1415.394858 (pitch) 0.028254 (yaw) 
----------------------------------------------------- 
step 103, time 0.051500, maxvel 30.000000, total vol 183257, vol(u>maxvel) 6.51521, cell count 1104787
bounding box (containing cells with vel>maxvel): xmin -12.2621 -1.6962 -0.503245, xmax 0.717977 1.69623 3.9506m 
bounding box of vehicle: xmin -12.2 -1.30008 -6.44084e-18, xmax 6.64751e-18 1.30008 3.6m 
gts area: 163.426 
yplus max: 130.719, yplus min: 0.0224328 
position of yplus max: -12.0304 -1.28988 1.94884 
yplus prom: 3.0904 
forces: 2748.320255 -0.004863 -863.670274 
Drag coefficient: 0.766971 
torque (ref. CG): 0.006808 (roll) -1420.740314 (pitch) 0.029662 (yaw) 
----------------------------------------------------- 
step 104, time 0.052000, maxvel 30.000000, total vol 183257, vol(u>maxvel) 6.48784, cell count 1096975
bounding box (containing cells with vel>maxvel): xmin -12.2621 -1.6962 -0.503245, xmax 0.717977 1.69623 3.9506m 
bounding box of vehicle: xmin -12.2 -1.30008 -6.44084e-18, xmax 6.64751e-18 1.30008 3.6m 
gts area: 163.426 
yplus max: 130.715, yplus min: 0.0224526 
position of yplus max: -12.0304 -1.28988 1.94884 
yplus prom: 3.08965 
forces: 2742.804699 -0.010697 -863.278213 
Drag coefficient: 0.765431 
torque (ref. CG): 0.014976 (roll) -1426.070520 (pitch) 0.065253 (yaw) 
----------------------------------------------------- 
step 105, time 0.052500, maxvel 30.000000, total vol 183257, vol(u>maxvel) 6.46389, cell count 1089500
bounding box (containing cells with vel>maxvel): xmin -12.2621 -1.6962 -0.503245, xmax 0.718046 1.69623 3.9506m 
bounding box of vehicle: xmin -12.2 -1.30008 -6.44084e-18, xmax 6.64751e-18 1.30008 3.6m 
gts area: 163.426 
yplus max: 130.711, yplus min: 0.0224971 
position of yplus max: -12.0304 -1.28988 1.94884 
yplus prom: 3.0889 
forces: 2737.328237 -0.001649 -862.870615 
Drag coefficient: 0.763903 
torque (ref. CG): 0.002309 (roll) -1431.251219 (pitch) 0.010060 (yaw) 
----------------------------------------------------- 
step 106, time 0.053000, maxvel 30.000000, total vol 183257, vol(u>maxvel) 6.43841, cell count 1082458
bounding box (containing cells with vel>maxvel): xmin -12.2621 -1.6962 -0.503245, xmax 0.718046 1.69623 3.9506m 
bounding box of vehicle: xmin -12.2 -1.30008 -6.44084e-18, xmax 6.64751e-18 1.30008 3.6m 
gts area: 163.426 
yplus max: 130.708, yplus min: 0.0225662 
position of yplus max: -12.0304 -1.28988 1.94884 
yplus prom: 3.08815 
forces: 2731.897850 -0.007688 -862.472986 
Drag coefficient: 0.762388 
torque (ref. CG): 0.010763 (roll) -1436.428227 (pitch) 0.046898 (yaw) 
----------------------------------------------------- 
step 107, time 0.053500, maxvel 30.000000, total vol 183257, vol(u>maxvel) 6.41652, cell count 1075682
bounding box (containing cells with vel>maxvel): xmin -12.2621 -1.6962 -0.503245, xmax 0.718046 1.69623 3.9506m 
bounding box of vehicle: xmin -12.2 -1.30008 -6.44084e-18, xmax 6.64751e-18 1.30008 3.6m 
gts area: 163.426 
yplus max: 130.704, yplus min: 0.0226532 
position of yplus max: -12.0304 -1.28988 1.94884 
yplus prom: 3.08739 
forces: 2726.510298 -0.007767 -862.080075 
Drag coefficient: 0.760884 
torque (ref. CG): 0.010873 (roll) -1441.574042 (pitch) 0.047376 (yaw) 
----------------------------------------------------- 
step 108, time 0.054000, maxvel 30.000000, total vol 183257, vol(u>maxvel) 6.38179, cell count 1069262
bounding box (containing cells with vel>maxvel): xmin -12.2621 -1.6962 -0.503245, xmax 0.718046 1.69623 3.95059m 
bounding box of vehicle: xmin -12.2 -1.30008 -6.44084e-18, xmax 6.64751e-18 1.30008 3.6m 
gts area: 163.426 
yplus max: 130.7, yplus min: 0.0227528 
position of yplus max: -12.0304 -1.28988 1.94884 
yplus prom: 3.08663 
forces: 2721.187967 -0.016134 -861.690406 
Drag coefficient: 0.759399 
torque (ref. CG): 0.022587 (roll) -1446.648322 (pitch) 0.098416 (yaw) 
----------------------------------------------------- 
step 109, time 0.054500, maxvel 30.000000, total vol 183257, vol(u>maxvel) 6.35761, cell count 1062591
bounding box (containing cells with vel>maxvel): xmin -12.2621 -1.6962 -0.503245, xmax 0.718046 1.69623 3.95059m 
bounding box of vehicle: xmin -12.2 -1.30008 -6.44084e-18, xmax 6.64751e-18 1.30008 3.6m 
gts area: 163.426 
yplus max: 130.697, yplus min: 0.0228742 
position of yplus max: -12.0304 -1.28988 1.94884 
yplus prom: 3.08586 
forces: 2715.893764 0.000273 -861.278246 
Drag coefficient: 0.757921 
torque (ref. CG): -0.000383 (roll) -1451.546030 (pitch) -0.001668 (yaw) 
----------------------------------------------------- 
step 110, time 0.055000, maxvel 30.000000, total vol 183257, vol(u>maxvel) 6.33231, cell count 1055568
bounding box (containing cells with vel>maxvel): xmin -12.2621 -1.6962 -0.503245, xmax 0.718046 1.69623 3.95059m 
bounding box of vehicle: xmin -12.2 -1.30008 -6.44084e-18, xmax 6.64751e-18 1.30008 3.6m 
gts area: 163.426 
yplus max: 130.694, yplus min: 0.0230171 
position of yplus max: -12.0304 -1.28988 1.94884 
yplus prom: 3.08509 
forces: 2710.643348 -0.017513 -860.886455 
Drag coefficient: 0.756456 
torque (ref. CG): 0.024518 (roll) -1456.506687 (pitch) 0.106827 (yaw) 
----------------------------------------------------- 
step 111, time 0.055500, maxvel 30.000000, total vol 183257, vol(u>maxvel) 6.30713, cell count 1049170
bounding box (containing cells with vel>maxvel): xmin -12.2621 -1.6962 -0.503245, xmax 0.718075 1.69623 3.95059m 
bounding box of vehicle: xmin -12.2 -1.30008 -6.44084e-18, xmax 6.64751e-18 1.30008 3.6m 
gts area: 163.426 
yplus max: 130.69, yplus min: 0.0231824 
position of yplus max: -12.0304 -1.28988 1.94884 
yplus prom: 3.08432 
forces: 2705.456875 -0.002799 -860.495991 
Drag coefficient: 0.755009 
torque (ref. CG): 0.003918 (roll) -1461.385921 (pitch) 0.017072 (yaw) 
----------------------------------------------------- 
step 112, time 0.056000, maxvel 30.000000, total vol 183257, vol(u>maxvel) 6.28276, cell count 1042512
bounding box (containing cells with vel>maxvel): xmin -12.2621 -1.6962 -0.503245, xmax 0.718075 1.69623 3.94947m 
bounding box of vehicle: xmin -12.2 -1.30008 -6.44084e-18, xmax 6.64751e-18 1.30008 3.6m 
gts area: 163.426 
yplus max: 130.687, yplus min: 0.0233654 
position of yplus max: -12.0304 -1.28988 1.94884 
yplus prom: 3.08354 
forces: 2700.322189 -0.020794 -860.115434 
Drag coefficient: 0.753576 
torque (ref. CG): 0.029111 (roll) -1466.253082 (pitch) 0.126841 (yaw) 
----------------------------------------------------- 
step 113, time 0.056500, maxvel 30.000000, total vol 183257, vol(u>maxvel) 6.26195, cell count 1034447
bounding box (containing cells with vel>maxvel): xmin -12.2621 -1.6962 -0.503245, xmax 0.718075 1.69623 3.94947m 
bounding box of vehicle: xmin -12.2 -1.30008 -6.44084e-18, xmax 6.64751e-18 1.30008 3.6m 
gts area: 163.426 
yplus max: 130.684, yplus min: 0.0235681 
position of yplus max: -12.0304 -1.28988 1.94884 
yplus prom: 3.08276 
forces: 2695.235137 -0.001607 -859.730092 
Drag coefficient: 0.752156 
torque (ref. CG): 0.002250 (roll) -1471.024368 (pitch) 0.009805 (yaw) 
----------------------------------------------------- 
step 114, time 0.057000, maxvel 30.000000, total vol 183257, vol(u>maxvel) 6.23678, cell count 1027363
bounding box (containing cells with vel>maxvel): xmin -12.2621 -1.6962 -0.503245, xmax 0.718075 1.69623 3.9492m 
bounding box of vehicle: xmin -12.2 -1.30008 -6.44084e-18, xmax 6.64751e-18 1.30008 3.6m 
gts area: 163.426 
yplus max: 130.681, yplus min: 0.0237859 
position of yplus max: -12.0304 -1.28988 1.94884 
yplus prom: 3.08197 
forces: 2690.180432 -0.022233 -859.350164 
Drag coefficient: 0.750746 
torque (ref. CG): 0.031127 (roll) -1475.783395 (pitch) 0.135624 (yaw) 
----------------------------------------------------- 
step 115, time 0.057500, maxvel 30.000000, total vol 183257, vol(u>maxvel) 6.21329, cell count 1020577
bounding box (containing cells with vel>maxvel): xmin -12.2621 -1.6962 -0.503245, xmax 0.718137 1.69623 3.88171m 
bounding box of vehicle: xmin -12.2 -1.30008 -6.44084e-18, xmax 6.64751e-18 1.30008 3.6m 
gts area: 163.426 
yplus max: 130.678, yplus min: 0.0240211 
position of yplus max: -12.0304 -1.28988 1.94884 
yplus prom: 3.08117 
forces: 2685.153813 -0.002068 -858.962386 
Drag coefficient: 0.749343 
torque (ref. CG): 0.002896 (roll) -1480.455217 (pitch) 0.012616 (yaw) 
----------------------------------------------------- 
step 116, time 0.058000, maxvel 30.000000, total vol 183257, vol(u>maxvel) 6.19269, cell count 1013631
bounding box (containing cells with vel>maxvel): xmin -12.2621 -1.6962 -0.503245, xmax 0.718137 1.69623 3.88171m 
bounding box of vehicle: xmin -12.2 -1.30008 -6.44084e-18, xmax 6.64751e-18 1.30008 3.6m 
gts area: 163.426 
yplus max: 130.675, yplus min: 0.00992675 
position of yplus max: -12.0304 -1.28988 1.94884 
yplus prom: 3.08038 
forces: 2680.166109 -0.023495 -858.577006 
Drag coefficient: 0.747951 
torque (ref. CG): 0.032894 (roll) -1485.087184 (pitch) 0.143322 (yaw) 
----------------------------------------------------- 
step 117, time 0.058500, maxvel 30.000000, total vol 183257, vol(u>maxvel) 6.17136, cell count 1007305
bounding box (containing cells with vel>maxvel): xmin -12.2621 -1.6962 -0.503245, xmax 0.79276 1.69623 3.88171m 
bounding box of vehicle: xmin -12.2 -1.30008 -6.44084e-18, xmax 6.64751e-18 1.30008 3.6m 
gts area: 163.426 
yplus max: 130.672, yplus min: 0.0245312 
position of yplus max: -12.0304 -1.28988 1.94884 
yplus prom: 3.07958 
forces: 2675.220518 -0.012793 -858.202307 
Drag coefficient: 0.746571 
torque (ref. CG): 0.017910 (roll) -1489.725349 (pitch) 0.078039 (yaw) 
----------------------------------------------------- 
step 118, time 0.059000, maxvel 30.000000, total vol 183257, vol(u>maxvel) 6.15093, cell count 1001717
bounding box (containing cells with vel>maxvel): xmin -12.2621 -1.6962 -0.503245, xmax 0.792886 1.69623 3.88171m 
bounding box of vehicle: xmin -12.2 -1.30008 -6.44084e-18, xmax 6.64751e-18 1.30008 3.6m 
gts area: 163.426 
yplus max: 130.669, yplus min: 0.024803 
position of yplus max: -12.0304 -1.28988 1.94884 
yplus prom: 3.07877 
forces: 2670.304834 -0.012931 -857.802122 
Drag coefficient: 0.745199 
torque (ref. CG): 0.018103 (roll) -1494.166178 (pitch) 0.078877 (yaw) 
----------------------------------------------------- 
step 119, time 0.059500, maxvel 30.000000, total vol 183257, vol(u>maxvel) 6.12383, cell count 996606
bounding box (containing cells with vel>maxvel): xmin -12.2621 -1.69614 -0.503245, xmax 0.792995 1.69618 3.88171m 
bounding box of vehicle: xmin -12.2 -1.30008 -6.44084e-18, xmax 6.64751e-18 1.30008 3.6m 
gts area: 163.426 
yplus max: 130.666, yplus min: 0.025086 
position of yplus max: -12.0304 -1.28988 1.94884 
yplus prom: 3.07797 
forces: 2665.420529 -0.020164 -857.409920 
Drag coefficient: 0.743836 
torque (ref. CG): 0.028230 (roll) -1498.611770 (pitch) 0.123002 (yaw) 
----------------------------------------------------- 
step 120, time 0.060000, maxvel 30.000000, total vol 183257, vol(u>maxvel) 6.1078, cell count 992000
bounding box (containing cells with vel>maxvel): xmin -12.2621 -1.69614 -0.503245, xmax 0.793093 1.69618 3.88171m 
bounding box of vehicle: xmin -12.2 -1.30008 -6.44084e-18, xmax 6.64751e-18 1.30008 3.6m 
gts area: 163.426 
yplus max: 130.664, yplus min: 0.0253796 
position of yplus max: -12.0304 -1.28988 1.94884 
yplus prom: 3.07716 
forces: 2660.593380 -0.018108 -857.027527 
Drag coefficient: 0.742489 
torque (ref. CG): 0.025351 (roll) -1503.037184 (pitch) 0.110456 (yaw) 
----------------------------------------------------- 
step 121, time 0.060500, maxvel 30.000000, total vol 183257, vol(u>maxvel) 6.0877, cell count 987872
bounding box (containing cells with vel>maxvel): xmin -12.2621 -1.69614 -0.503245, xmax 0.793093 1.69618 3.88171m 
bounding box of vehicle: xmin -12.2 -1.30008 -6.44084e-18, xmax 6.64751e-18 1.30008 3.6m 
gts area: 163.426 
yplus max: 130.661, yplus min: 0.0256794 
position of yplus max: -12.0304 -1.28988 1.94884 
yplus prom: 3.07634 
forces: 2655.782780 -0.013596 -856.623120 
Drag coefficient: 0.741146 
torque (ref. CG): 0.019035 (roll) -1507.305143 (pitch) 0.082938 (yaw) 
----------------------------------------------------- 
step 122, time 0.061000, maxvel 30.000000, total vol 183257, vol(u>maxvel) 6.07053, cell count 984048
bounding box (containing cells with vel>maxvel): xmin -12.2621 -1.69614 -0.503245, xmax 0.793186 1.69618 3.88171m 
bounding box of vehicle: xmin -12.2 -1.30008 -6.44084e-18, xmax 6.64751e-18 1.30008 3.6m 
gts area: 163.426 
yplus max: 130.658, yplus min: 0.0259879 
position of yplus max: -12.0304 -1.28988 1.94884 
yplus prom: 3.07553 
forces: 2651.017924 -0.021303 -856.237600 
Drag coefficient: 0.739817 
torque (ref. CG): 0.029824 (roll) -1511.624266 (pitch) 0.129946 (yaw) 
----------------------------------------------------- 
step 123, time 0.061500, maxvel 30.000000, total vol 183257, vol(u>maxvel) 6.05128, cell count 980424
bounding box (containing cells with vel>maxvel): xmin -12.2621 -1.69614 -0.503245, xmax 0.793186 1.69618 3.88171m 
bounding box of vehicle: xmin -12.2 -1.30008 -6.44084e-18, xmax 6.64751e-18 1.30008 3.6m 
gts area: 163.426 
yplus max: 130.656, yplus min: 0.026303 
position of yplus max: -12.0304 -1.28988 1.94884 
yplus prom: 3.0747 
forces: 2646.280684 -0.021131 -855.853853 
Drag coefficient: 0.738495 
torque (ref. CG): 0.029584 (roll) -1515.915545 (pitch) 0.128900 (yaw) 
----------------------------------------------------- 
step 124, time 0.062000, maxvel 30.000000, total vol 183257, vol(u>maxvel) 6.03225, cell count 976795
bounding box (containing cells with vel>maxvel): xmin -12.2621 -1.69614 -0.503245, xmax 0.793494 1.69618 3.88171m 
bounding box of vehicle: xmin -12.2 -1.30008 -6.44084e-18, xmax 6.64751e-18 1.30008 3.6m 
gts area: 163.426 
yplus max: 130.653, yplus min: 0.0266217 
position of yplus max: -12.0304 -1.28988 1.94884 
yplus prom: 3.07388 
forces: 2641.539103 -0.014817 -855.443669 
Drag coefficient: 0.737171 
[...]
Drag coefficient: 0.332636 
torque (ref. CG): 0.136442 (roll) -1158.578360 (pitch) 0.594499 (yaw) 
----------------------------------------------------- 
step 1970, time 0.985000, maxvel 30.000000, total vol 183257, vol(u>maxvel) 1.98194, cell count 538247
bounding box (containing cells with vel>maxvel): xmin -12.262 -1.69592 -0.503245, xmax -10.738 1.69609 3.27555m 
bounding box of vehicle: xmin -12.2 -1.30008 -6.44084e-18, xmax 6.64751e-18 1.30008 3.6m 
gts area: 163.426 
yplus max: 130.275, yplus min: 0.0436594 
position of yplus max: -12.0304 -1.28988 1.94884 
yplus prom: 2.81626 
forces: 1191.925791 -0.096065 -463.513852 
Drag coefficient: 0.332629 
torque (ref. CG): 0.134491 (roll) -1158.738389 (pitch) 0.585997 (yaw) 
----------------------------------------------------- 
step 1971, time 0.985500, maxvel 30.000000, total vol 183257, vol(u>maxvel) 1.98193, cell count 538238
bounding box (containing cells with vel>maxvel): xmin -12.262 -1.69592 -0.503245, xmax -10.738 1.69609 3.27555m 
bounding box of vehicle: xmin -12.2 -1.30008 -6.44084e-18, xmax 6.64751e-18 1.30008 3.6m 
gts area: 163.426 
yplus max: 130.275, yplus min: 0.043432 
position of yplus max: -12.0304 -1.28988 1.94884 
yplus prom: 2.81628 
forces: 1191.907086 -0.095474 -463.535644 
Drag coefficient: 0.332624 
torque (ref. CG): 0.133663 (roll) -1158.897510 (pitch) 0.582389 (yaw) 
----------------------------------------------------- 
step 1972, time 0.986000, maxvel 30.000000, total vol 183257, vol(u>maxvel) 1.98193, cell count 538229
bounding box (containing cells with vel>maxvel): xmin -12.262 -1.69592 -0.503245, xmax -10.738 1.69609 3.27555m 
bounding box of vehicle: xmin -12.2 -1.30008 -6.44084e-18, xmax 6.64751e-18 1.30008 3.6m 
gts area: 163.426 
yplus max: 130.275, yplus min: 0.0432074 
position of yplus max: -12.0304 -1.28988 1.94884 
yplus prom: 2.8163 
forces: 1191.886208 -0.094295 -463.557657 
Drag coefficient: 0.332618 
torque (ref. CG): 0.132013 (roll) -1159.061018 (pitch) 0.575199 (yaw) 
----------------------------------------------------- 
step 1973, time 0.986500, maxvel 30.000000, total vol 183257, vol(u>maxvel) 1.98198, cell count 538225
bounding box (containing cells with vel>maxvel): xmin -12.262 -1.69592 -0.503245, xmax -10.738 1.69609 3.27555m 
bounding box of vehicle: xmin -12.2 -1.30008 -6.44084e-18, xmax 6.64751e-18 1.30008 3.6m 
gts area: 163.426 
yplus max: 130.275, yplus min: 0.0429862 
position of yplus max: -12.0304 -1.28988 1.94884 
yplus prom: 2.81632 
forces: 1191.866679 -0.093546 -463.580322 
Drag coefficient: 0.332613 
torque (ref. CG): 0.130965 (roll) -1159.226614 (pitch) 0.570633 (yaw) 
----------------------------------------------------- 
step 1974, time 0.987000, maxvel 30.000000, total vol 183257, vol(u>maxvel) 1.98206, cell count 538223
bounding box (containing cells with vel>maxvel): xmin -12.262 -1.69592 -0.503245, xmax -10.738 1.69609 3.27555m 
bounding box of vehicle: xmin -12.2 -1.30008 -6.44084e-18, xmax 6.64751e-18 1.30008 3.6m 
gts area: 163.426 
yplus max: 130.275, yplus min: 0.042768 
position of yplus max: -12.0304 -1.28988 1.94884 
yplus prom: 2.81634 
forces: 1191.844977 -0.092629 -463.603355 
Drag coefficient: 0.332607 
torque (ref. CG): 0.129680 (roll) -1159.397497 (pitch) 0.565034 (yaw) 
----------------------------------------------------- 
step 1975, time 0.987500, maxvel 30.000000, total vol 183257, vol(u>maxvel) 1.98206, cell count 538217
bounding box (containing cells with vel>maxvel): xmin -12.262 -1.69592 -0.503245, xmax -10.738 1.69609 3.27555m 
bounding box of vehicle: xmin -12.2 -1.30008 -6.44084e-18, xmax 6.64751e-18 1.30008 3.6m 
gts area: 163.426 
yplus max: 130.275, yplus min: 0.0425532 
position of yplus max: -12.0304 -1.28988 1.94884 
yplus prom: 2.81636 
forces: 1191.826204 -0.091741 -463.626904 
Drag coefficient: 0.332602 
torque (ref. CG): 0.128438 (roll) -1159.567430 (pitch) 0.559622 (yaw) 
----------------------------------------------------- 
step 1976, time 0.988000, maxvel 30.000000, total vol 183257, vol(u>maxvel) 1.98206, cell count 538214
bounding box (containing cells with vel>maxvel): xmin -12.262 -1.69592 -0.503245, xmax -10.738 1.69609 3.27555m 
bounding box of vehicle: xmin -12.2 -1.30008 -6.44084e-18, xmax 6.64751e-18 1.30008 3.6m 
gts area: 163.426 
yplus max: 130.275, yplus min: 0.0423424 
position of yplus max: -12.0304 -1.28988 1.94884 
yplus prom: 2.81639 
forces: 1191.805908 -0.090727 -463.650754 
Drag coefficient: 0.332596 
torque (ref. CG): 0.127018 (roll) -1159.741326 (pitch) 0.553435 (yaw) 
----------------------------------------------------- 
step 1977, time 0.988500, maxvel 30.000000, total vol 183257, vol(u>maxvel) 1.98206, cell count 538209
bounding box (containing cells with vel>maxvel): xmin -12.262 -1.69592 -0.503245, xmax -10.738 1.69609 3.27555m 
bounding box of vehicle: xmin -12.2 -1.30008 -6.44084e-18, xmax 6.64751e-18 1.30008 3.6m 
gts area: 163.426 
yplus max: 130.275, yplus min: 0.0421355 
position of yplus max: -12.0304 -1.28988 1.94884 
yplus prom: 2.81641 
forces: 1191.787640 -0.089928 -463.675605 
Drag coefficient: 0.332591 
torque (ref. CG): 0.125899 (roll) -1159.918492 (pitch) 0.548558 (yaw) 
----------------------------------------------------- 
step 1978, time 0.989000, maxvel 30.000000, total vol 183257, vol(u>maxvel) 1.98206, cell count 538204
bounding box (containing cells with vel>maxvel): xmin -12.262 -1.69592 -0.503245, xmax -10.738 1.69609 3.27555m 
bounding box of vehicle: xmin -12.2 -1.30008 -6.44084e-18, xmax 6.64751e-18 1.30008 3.6m 
gts area: 163.426 
yplus max: 130.275, yplus min: 0.0419326 
position of yplus max: -12.0304 -1.28988 1.94884 
yplus prom: 2.81643 
forces: 1191.768275 -0.088868 -463.700597 
Drag coefficient: 0.332585 
torque (ref. CG): 0.124415 (roll) -1160.098055 (pitch) 0.542092 (yaw) 
----------------------------------------------------- 
step 1979, time 0.989500, maxvel 30.000000, total vol 183257, vol(u>maxvel) 1.98206, cell count 538198
bounding box (containing cells with vel>maxvel): xmin -12.262 -1.69592 -0.503245, xmax -10.738 1.69609 3.27555m 
bounding box of vehicle: xmin -12.2 -1.30008 -6.44084e-18, xmax 6.64751e-18 1.30008 3.6m 
gts area: 163.426 
yplus max: 130.275, yplus min: 0.0417347 
position of yplus max: -12.0304 -1.28988 1.94884 
yplus prom: 2.81645 
forces: 1191.749397 -0.087747 -463.726280 
Drag coefficient: 0.332580 
torque (ref. CG): 0.122846 (roll) -1160.281155 (pitch) 0.535258 (yaw) 
----------------------------------------------------- 
step 1980, time 0.990000, maxvel 30.000000, total vol 183257, vol(u>maxvel) 1.98206, cell count 538192
bounding box (containing cells with vel>maxvel): xmin -12.262 -1.69592 -0.503245, xmax -10.738 1.69609 3.27555m 
bounding box of vehicle: xmin -12.2 -1.30008 -6.44084e-18, xmax 6.64751e-18 1.30008 3.6m 
gts area: 163.426 
yplus max: 130.275, yplus min: 0.0415416 
position of yplus max: -12.0304 -1.28988 1.94884 
yplus prom: 2.81647 
forces: 1191.732521 -0.087282 -463.752303 
Drag coefficient: 0.332575 
torque (ref. CG): 0.122194 (roll) -1160.463520 (pitch) 0.532418 (yaw) 
----------------------------------------------------- 
step 1981, time 0.990500, maxvel 30.000000, total vol 183257, vol(u>maxvel) 1.9821, cell count 538182
bounding box (containing cells with vel>maxvel): xmin -12.262 -1.69592 -0.503245, xmax -10.738 1.69609 3.27555m 
bounding box of vehicle: xmin -12.2 -1.30008 -6.44084e-18, xmax 6.64751e-18 1.30008 3.6m 
gts area: 163.426 
yplus max: 130.275, yplus min: 0.0413534 
position of yplus max: -12.0304 -1.28988 1.94884 
yplus prom: 2.81649 
forces: 1191.714371 -0.086395 -463.779288 
Drag coefficient: 0.332570 
torque (ref. CG): 0.120953 (roll) -1160.653539 (pitch) 0.527012 (yaw) 
----------------------------------------------------- 
step 1982, time 0.991000, maxvel 30.000000, total vol 183257, vol(u>maxvel) 1.9821, cell count 538180
bounding box (containing cells with vel>maxvel): xmin -12.262 -1.69592 -0.503245, xmax -10.738 1.69609 3.27555m 
bounding box of vehicle: xmin -12.2 -1.30008 -6.44084e-18, xmax 6.64751e-18 1.30008 3.6m 
gts area: 163.426 
yplus max: 130.275, yplus min: 0.0411706 
position of yplus max: -12.0304 -1.28988 1.94884 
yplus prom: 2.81652 
forces: 1191.696329 -0.085325 -463.806494 
Drag coefficient: 0.332565 
torque (ref. CG): 0.119455 (roll) -1160.844751 (pitch) 0.520481 (yaw) 
----------------------------------------------------- 
step 1983, time 0.991500, maxvel 30.000000, total vol 183257, vol(u>maxvel) 1.98215, cell count 538181
bounding box (containing cells with vel>maxvel): xmin -12.262 -1.69592 -0.503245, xmax -10.738 1.69609 3.27555m 
bounding box of vehicle: xmin -12.2 -1.30008 -6.44084e-18, xmax 6.64751e-18 1.30008 3.6m 
gts area: 163.426 
yplus max: 130.275, yplus min: 0.0409932 
position of yplus max: -12.0304 -1.28988 1.94884 
yplus prom: 2.81654 
forces: 1191.679371 -0.084377 -463.833794 
Drag coefficient: 0.332561 
torque (ref. CG): 0.118127 (roll) -1161.035023 (pitch) 0.514697 (yaw) 
----------------------------------------------------- 
step 1984, time 0.992000, maxvel 30.000000, total vol 183257, vol(u>maxvel) 1.98215, cell count 538177
bounding box (containing cells with vel>maxvel): xmin -12.262 -1.69592 -0.503245, xmax -10.738 1.69609 3.27555m 
bounding box of vehicle: xmin -12.2 -1.30008 -6.44084e-18, xmax 6.64751e-18 1.30008 3.6m 
gts area: 163.426 
yplus max: 130.275, yplus min: 0.0408219 
position of yplus max: -12.0304 -1.28988 1.94884 
yplus prom: 2.81656 
forces: 1191.660705 -0.083131 -463.862072 
Drag coefficient: 0.332555 
torque (ref. CG): 0.116383 (roll) -1161.233654 (pitch) 0.507096 (yaw) 
----------------------------------------------------- 
step 1985, time 0.992500, maxvel 30.000000, total vol 183257, vol(u>maxvel) 1.98215, cell count 538169
bounding box (containing cells with vel>maxvel): xmin -12.262 -1.69592 -0.503245, xmax -10.738 1.69609 3.27555m 
bounding box of vehicle: xmin -12.2 -1.30008 -6.44084e-18, xmax 6.64751e-18 1.30008 3.6m 
gts area: 163.426 
yplus max: 130.275, yplus min: 0.0406574 
position of yplus max: -12.0304 -1.28988 1.94884 
yplus prom: 2.81658 
forces: 1191.644430 -0.082296 -463.891054 
Drag coefficient: 0.332551 
torque (ref. CG): 0.115215 (roll) -1161.433230 (pitch) 0.502009 (yaw) 
----------------------------------------------------- 
step 1986, time 0.993000, maxvel 30.000000, total vol 183257, vol(u>maxvel) 1.98215, cell count 538167
bounding box (containing cells with vel>maxvel): xmin -12.262 -1.69592 -0.503245, xmax -10.738 1.69609 3.27555m 
bounding box of vehicle: xmin -12.2 -1.30008 -6.44084e-18, xmax 6.64751e-18 1.30008 3.6m 
gts area: 163.426 
yplus max: 130.275, yplus min: 0.0404993 
position of yplus max: -12.0304 -1.28988 1.94884 
yplus prom: 2.8166 
forces: 1191.627936 -0.081448 -463.920779 
Drag coefficient: 0.332546 
torque (ref. CG): 0.114028 (roll) -1161.637640 (pitch) 0.496835 (yaw) 
----------------------------------------------------- 
step 1987, time 0.993500, maxvel 30.000000, total vol 183257, vol(u>maxvel) 1.98215, cell count 538162
bounding box (containing cells with vel>maxvel): xmin -12.262 -1.69592 -0.503245, xmax -10.738 1.69609 3.27555m 
bounding box of vehicle: xmin -12.2 -1.30008 -6.44084e-18, xmax 6.64751e-18 1.30008 3.6m 
gts area: 163.426 
yplus max: 130.275, yplus min: 0.040348 
position of yplus max: -12.0304 -1.28988 1.94884 
yplus prom: 2.81663 
forces: 1191.611927 -0.080568 -463.950354 
Drag coefficient: 0.332542 
torque (ref. CG): 0.112795 (roll) -1161.840460 (pitch) 0.491462 (yaw) 
----------------------------------------------------- 
step 1988, time 0.994000, maxvel 30.000000, total vol 183257, vol(u>maxvel) 1.98215, cell count 538159
bounding box (containing cells with vel>maxvel): xmin -12.262 -1.69592 -0.503245, xmax -10.738 1.69609 3.27555m 
bounding box of vehicle: xmin -12.2 -1.30008 -6.44084e-18, xmax 6.64751e-18 1.30008 3.6m 
gts area: 163.426 
yplus max: 130.275, yplus min: 0.0402038 
position of yplus max: -12.0304 -1.28988 1.94884 
yplus prom: 2.81665 
forces: 1191.596252 -0.079675 -463.980147 
Drag coefficient: 0.332537 
torque (ref. CG): 0.111545 (roll) -1162.044144 (pitch) 0.486016 (yaw) 
----------------------------------------------------- 
step 1989, time 0.994500, maxvel 30.000000, total vol 183257, vol(u>maxvel) 1.98215, cell count 538156
bounding box (containing cells with vel>maxvel): xmin -12.262 -1.69592 -0.503245, xmax -10.738 1.69609 3.27555m 
bounding box of vehicle: xmin -12.2 -1.30008 -6.44084e-18, xmax 6.64751e-18 1.30008 3.6m 
gts area: 163.426 
yplus max: 130.275, yplus min: 0.0400654 
position of yplus max: -12.0304 -1.28988 1.94884 
yplus prom: 2.81667 
forces: 1191.579115 -0.078414 -464.010739 
Drag coefficient: 0.332533 
torque (ref. CG): 0.109780 (roll) -1162.254745 (pitch) 0.478328 (yaw) 
----------------------------------------------------- 
step 1990, time 0.995000, maxvel 30.000000, total vol 183257, vol(u>maxvel) 1.9822, cell count 538154
bounding box (containing cells with vel>maxvel): xmin -12.262 -1.69592 -0.503245, xmax -10.738 1.69609 3.27555m 
bounding box of vehicle: xmin -12.2 -1.30008 -6.44084e-18, xmax 6.64751e-18 1.30008 3.6m 
gts area: 163.426 
yplus max: 130.275, yplus min: 0.0399317 
position of yplus max: -12.0304 -1.28988 1.94884 
yplus prom: 2.81669 
forces: 1191.565070 -0.077613 -464.041490 
Drag coefficient: 0.332529 
torque (ref. CG): 0.108659 (roll) -1162.461990 (pitch) 0.473441 (yaw) 
----------------------------------------------------- 
step 1991, time 0.995500, maxvel 30.000000, total vol 183257, vol(u>maxvel) 1.98219, cell count 538148
bounding box (containing cells with vel>maxvel): xmin -12.262 -1.69592 -0.503245, xmax -10.738 1.69609 3.27555m 
bounding box of vehicle: xmin -12.2 -1.30008 -6.44084e-18, xmax 6.64751e-18 1.30008 3.6m 
gts area: 163.426 
yplus max: 130.275, yplus min: 0.0398082 
position of yplus max: -12.0304 -1.28988 1.94884 
yplus prom: 2.81672 
forces: 1191.552431 -0.077012 -464.072761 
Drag coefficient: 0.332525 
torque (ref. CG): 0.107817 (roll) -1162.670440 (pitch) 0.469773 (yaw) 
----------------------------------------------------- 
step 1992, time 0.996000, maxvel 30.000000, total vol 183257, vol(u>maxvel) 1.98219, cell count 538147
bounding box (containing cells with vel>maxvel): xmin -12.262 -1.69592 -0.503245, xmax -10.738 1.69609 3.27555m 
bounding box of vehicle: xmin -12.2 -1.30008 -6.44084e-18, xmax 6.64751e-18 1.30008 3.6m 
gts area: 163.426 
yplus max: 130.275, yplus min: 0.0396926 
position of yplus max: -12.0304 -1.28988 1.94884 
yplus prom: 2.81674 
forces: 1191.535331 -0.075771 -464.105189 
Drag coefficient: 0.332520 
torque (ref. CG): 0.106079 (roll) -1162.892192 (pitch) 0.462202 (yaw) 
----------------------------------------------------- 
step 1993, time 0.996500, maxvel 30.000000, total vol 183257, vol(u>maxvel) 1.98218, cell count 538136
bounding box (containing cells with vel>maxvel): xmin -12.262 -1.69592 -0.503245, xmax -10.738 1.69609 3.27555m 
bounding box of vehicle: xmin -12.2 -1.30008 -6.44084e-18, xmax 6.64751e-18 1.30008 3.6m 
gts area: 163.426 
yplus max: 130.275, yplus min: 0.0395864 
position of yplus max: -12.0304 -1.28988 1.94884 
yplus prom: 2.81676 
forces: 1191.519987 -0.074901 -464.138091 
Drag coefficient: 0.332516 
torque (ref. CG): 0.104862 (roll) -1163.114375 (pitch) 0.456898 (yaw) 
----------------------------------------------------- 
step 1994, time 0.997000, maxvel 30.000000, total vol 183257, vol(u>maxvel) 1.98223, cell count 538135
bounding box (containing cells with vel>maxvel): xmin -12.262 -1.69592 -0.503245, xmax -10.738 1.69609 3.27555m 
bounding box of vehicle: xmin -12.2 -1.30008 -6.44084e-18, xmax 6.64751e-18 1.30008 3.6m 
gts area: 163.426 
yplus max: 130.275, yplus min: 0.0394892 
position of yplus max: -12.0304 -1.28988 1.94884 
yplus prom: 2.81678 
forces: 1191.505663 -0.074000 -464.171583 
Drag coefficient: 0.332512 
torque (ref. CG): 0.103599 (roll) -1163.338726 (pitch) 0.451398 (yaw) 
----------------------------------------------------- 
step 1995, time 0.997500, maxvel 30.000000, total vol 183257, vol(u>maxvel) 1.98223, cell count 538135
bounding box (containing cells with vel>maxvel): xmin -12.262 -1.69592 -0.503245, xmax -10.738 1.69609 3.27555m 
bounding box of vehicle: xmin -12.2 -1.30008 -6.44084e-18, xmax 6.64751e-18 1.30008 3.6m 
gts area: 163.426 
yplus max: 130.274, yplus min: 0.0394053 
position of yplus max: -12.0304 -1.28988 1.94884 
yplus prom: 2.81681 
forces: 1191.491873 -0.073067 -464.205603 
Drag coefficient: 0.332508 
torque (ref. CG): 0.102294 (roll) -1163.565555 (pitch) 0.445710 (yaw) 
----------------------------------------------------- 
step 1996, time 0.998000, maxvel 30.000000, total vol 183257, vol(u>maxvel) 1.98223, cell count 538135
bounding box (containing cells with vel>maxvel): xmin -12.262 -1.69592 -0.503245, xmax -10.738 1.69609 3.27555m 
bounding box of vehicle: xmin -12.2 -1.30008 -6.44084e-18, xmax 6.64751e-18 1.30008 3.6m 
gts area: 163.426 
yplus max: 130.274, yplus min: 0.0393284 
position of yplus max: -12.0304 -1.28988 1.94884 
yplus prom: 2.81683 
forces: 1191.480374 -0.072174 -464.239504 
Drag coefficient: 0.332505 
torque (ref. CG): 0.101044 (roll) -1163.788450 (pitch) 0.440261 (yaw) 
----------------------------------------------------- 
step 1997, time 0.998500, maxvel 30.000000, total vol 183257, vol(u>maxvel) 1.98229, cell count 538130
bounding box (containing cells with vel>maxvel): xmin -12.262 -1.69592 -0.503245, xmax -10.738 1.69609 3.27555m 
bounding box of vehicle: xmin -12.2 -1.30008 -6.44084e-18, xmax 6.64751e-18 1.30008 3.6m 
gts area: 163.426 
yplus max: 130.274, yplus min: 0.0392605 
position of yplus max: -12.0304 -1.28988 1.94884 
yplus prom: 2.81685 
forces: 1191.464875 -0.070864 -464.274621 
Drag coefficient: 0.332501 
torque (ref. CG): 0.099210 (roll) -1164.024362 (pitch) 0.432271 (yaw) 
----------------------------------------------------- 
step 1998, time 0.999000, maxvel 30.000000, total vol 183257, vol(u>maxvel) 1.98228, cell count 538121
bounding box (containing cells with vel>maxvel): xmin -12.262 -1.69592 -0.503245, xmax -10.738 1.69609 3.27555m 
bounding box of vehicle: xmin -12.2 -1.30008 -6.44084e-18, xmax 6.64751e-18 1.30008 3.6m 
gts area: 163.426 
yplus max: 130.274, yplus min: 0.039204 
position of yplus max: -12.0304 -1.28988 1.94884 
yplus prom: 2.81687 
forces: 1191.453226 -0.070166 -464.309496 
Drag coefficient: 0.332497 
torque (ref. CG): 0.098232 (roll) -1164.253409 (pitch) 0.428011 (yaw) 
----------------------------------------------------- 
step 1999, time 0.999500, maxvel 30.000000, total vol 183257, vol(u>maxvel) 1.98228, cell count 538119
bounding box (containing cells with vel>maxvel): xmin -12.262 -1.69592 -0.503245, xmax -10.738 1.69609 3.27555m 
bounding box of vehicle: xmin -12.2 -1.30008 -6.44084e-18, xmax 6.64751e-18 1.30008 3.6m 
gts area: 163.426 
yplus max: 130.274, yplus min: 0.0391565 
position of yplus max: -12.0304 -1.28988 1.94884 
yplus prom: 2.8169 
forces: 1191.438506 -0.069116 -464.345745 
Drag coefficient: 0.332493 
torque (ref. CG): 0.096762 (roll) -1164.495136 (pitch) 0.421608 (yaw) 
----------------------------------------------------- 
step 2000, time 1.000000, maxvel 30.000000, total vol 183257, vol(u>maxvel) 1.9823, cell count 538118
bounding box (containing cells with vel>maxvel): xmin -12.262 -1.69592 -0.503245, xmax -10.738 1.69609 3.27555m 
bounding box of vehicle: xmin -12.2 -1.30008 -6.44084e-18, xmax 6.64751e-18 1.30008 3.6m 
gts area: 163.426 
yplus max: 130.274, yplus min: 0.0391211 
position of yplus max: -12.0304 -1.28988 1.94884 
yplus prom: 2.81692 
forces: 1191.427222 -0.068427 -464.381940 
Drag coefficient: 0.332490 
torque (ref. CG): 0.095797 (roll) -1164.731726 (pitch) 0.417403 (yaw) 
----------------------------------------------------- 

 *****************************
  Post-calculation operations
 *****************************

Ends run at vie sep 2 09:40:00 ART 2022
