Start run at jue oct 6 01:25:50 ART 2022
PYTHON_CS_XFLAGS=' -O0 -g3 -ggdb3 -I/usr/include/jsoncpp ' /share/storage/pub/mstorti/saturne-vof/bin/code_saturne  run --param setup.xml

The following have been reloaded with a version change:
  1) llvm/6.0.0 => llvm/3.4.2


The following have been reloaded with a version change:
  1) llvm/3.4.2 => llvm/6.0.0


                      Code_Saturne
                      ************

 Version:   6.1-alpha
 Path:      /share/storage/pub/mstorti/saturne-vof

 Result directory:
   /share/storage/finzeo/GTSstudy/2-GTS_bothRaoTunay/RESU/20221006-0125


 ****************************************
  Compiling user subroutines and linking
 ****************************************


 ****************************
  Preparing calculation data
 ****************************

 Parallel Code_Saturne on 40 processes.


 ***************************
  Preprocessing calculation
 ***************************


 **********************
  Starting calculation
 **********************

Warning: Process to core binding is enabled and OMP_NUM_THREADS is set to non-zero (1) value
If your program has OpenMP sections, this can cause over-subscription of cores and consequently poor performance
To avoid this, please re-run your application after setting MV2_ENABLE_AFFINITY=0
Use MV2_USE_THREAD_WARNING=0 to suppress this message
step 1, time 0.000800 
bounding box of vehicle: xmin -12.2 -1.30003 -2.38524e-18, xmax 2.38524e-18 1.30003 3.60011m 
gts area: 163.422 m2 
yplus max: 52.5216, yplus min: 0 
position of yplus max: -12.1045 -1.25713 0.0864816 
yplus prom: 43.4689 
forces: 879034.862702 -80.628072 -108458.005487 
Drag coefficient: 245.313579 
Lateral coefficient: -0.022501 
Lift coefficient: -30.267538 
torque (ref. CG): 112.879301 (roll) 569054.974313 (pitch) 491.831238 (yaw) 
----------------------------------------------------- 
step 2, time 0.001600 
bounding box of vehicle: xmin -12.2 -1.30003 -2.38524e-18, xmax 2.38524e-18 1.30003 3.60011m 
gts area: 163.422 m2 
yplus max: 55.5915, yplus min: 2.15385 
position of yplus max: -12.1045 -1.25713 0.0864816 
yplus prom: 43.3786 
forces: 764938.086689 1.314082 -96648.682435 
Drag coefficient: 213.472421 
Lateral coefficient: 0.000367 
Lift coefficient: -26.971893 
torque (ref. CG): -1.839714 (roll) 481356.358513 (pitch) -8.015898 (yaw) 
----------------------------------------------------- 
step 3, time 0.002400 
bounding box of vehicle: xmin -12.2 -1.30003 -2.38524e-18, xmax 2.38524e-18 1.30003 3.60011m 
gts area: 163.422 m2 
yplus max: 60.4023, yplus min: 2.01643 
position of yplus max: -12.1045 -1.25713 0.0864816 
yplus prom: 43.1132 
forces: 19304.830277 -1.459144 -2944.092216 
Drag coefficient: 5.387428 
Lateral coefficient: -0.000407 
Lift coefficient: -0.821612 
torque (ref. CG): 2.042802 (roll) 9067.799873 (pitch) 8.900779 (yaw) 
----------------------------------------------------- 
step 4, time 0.003200 
bounding box of vehicle: xmin -12.2 -1.30003 -2.38524e-18, xmax 2.38524e-18 1.30003 3.60011m 
gts area: 163.422 m2 
yplus max: 63.9829, yplus min: 2.22541 
position of yplus max: -12.1045 -1.25713 0.0864816 
yplus prom: 43.1645 
forces: 2219.842047 0.044746 -840.058924 
Drag coefficient: 0.619495 
Lateral coefficient: 0.000012 
Lift coefficient: -0.234437 
torque (ref. CG): -0.062644 (roll) -2016.580570 (pitch) -0.272949 (yaw) 
----------------------------------------------------- 
step 5, time 0.004000 
bounding box of vehicle: xmin -12.2 -1.30003 -2.38524e-18, xmax 2.38524e-18 1.30003 3.60011m 
gts area: 163.422 m2 
yplus max: 65.4607, yplus min: 2.22795 
position of yplus max: -12.1045 -1.25713 0.0864816 
yplus prom: 43.1439 
forces: 2287.309808 -0.163901 -882.125595 
Drag coefficient: 0.638323 
Lateral coefficient: -0.000046 
Lift coefficient: -0.246176 
torque (ref. CG): 0.229461 (roll) -2178.732399 (pitch) 0.999796 (yaw) 
----------------------------------------------------- 
step 6, time 0.004800 
bounding box of vehicle: xmin -12.2 -1.30003 -2.38524e-18, xmax 2.38524e-18 1.30003 3.60011m 
gts area: 163.422 m2 
yplus max: 66.301, yplus min: 2.22577 
position of yplus max: -12.1045 -1.25713 0.0864816 
yplus prom: 43.0828 
forces: 2547.975992 0.236696 -899.108165 
Drag coefficient: 0.711067 
Lateral coefficient: 0.000066 
Lift coefficient: -0.250915 
torque (ref. CG): -0.331374 (roll) -1917.393415 (pitch) -1.443844 (yaw) 
----------------------------------------------------- 
step 7, time 0.005600 
bounding box of vehicle: xmin -12.2 -1.30003 -2.38524e-18, xmax 2.38524e-18 1.30003 3.60011m 
gts area: 163.422 m2 
yplus max: 66.8127, yplus min: 2.22171 
position of yplus max: -12.1045 -1.25713 0.0864816 
yplus prom: 43.0332 
forces: 2690.568194 0.011298 -897.659730 
Drag coefficient: 0.750861 
Lateral coefficient: 0.000003 
Lift coefficient: -0.250511 
torque (ref. CG): -0.015817 (roll) -1708.928883 (pitch) -0.068915 (yaw) 
----------------------------------------------------- 
step 8, time 0.006400 
bounding box of vehicle: xmin -12.2 -1.30003 -2.38524e-18, xmax 2.38524e-18 1.30003 3.60011m 
gts area: 163.422 m2 
yplus max: 67.1261, yplus min: 2.2162 
position of yplus max: -12.1045 -1.25713 0.0864816 
yplus prom: 42.9915 
forces: 2811.250718 -0.157091 -892.170963 
Drag coefficient: 0.784540 
Lateral coefficient: -0.000044 
Lift coefficient: -0.248979 
torque (ref. CG): 0.219928 (roll) -1506.491868 (pitch) 0.958258 (yaw) 
----------------------------------------------------- 
step 9, time 0.007200 
bounding box of vehicle: xmin -12.2 -1.30003 -2.38524e-18, xmax 2.38524e-18 1.30003 3.60011m 
gts area: 163.422 m2 
yplus max: 67.3181, yplus min: 2.20958 
position of yplus max: -12.1045 -1.25713 0.0864816 
yplus prom: 42.9561 
forces: 2906.228325 -0.171650 -887.641725 
Drag coefficient: 0.811046 
Lateral coefficient: -0.000048 
Lift coefficient: -0.247716 
torque (ref. CG): 0.240309 (roll) -1345.894865 (pitch) 1.047063 (yaw) 
----------------------------------------------------- 
step 10, time 0.008000 
bounding box of vehicle: xmin -12.2 -1.30003 -2.38524e-18, xmax 2.38524e-18 1.30003 3.60011m 
gts area: 163.422 m2 
yplus max: 67.4355, yplus min: 2.16098 
position of yplus max: -12.1045 -1.25713 0.0864816 
yplus prom: 42.9275 
forces: 2981.409498 -0.189679 -883.877251 
Drag coefficient: 0.832026 
Lateral coefficient: -0.000053 
Lift coefficient: -0.246665 
torque (ref. CG): 0.265550 (roll) -1217.677932 (pitch) 1.157040 (yaw) 
----------------------------------------------------- 
step 11, time 0.008800 
bounding box of vehicle: xmin -12.2 -1.30003 -2.38524e-18, xmax 2.38524e-18 1.30003 3.60011m 
gts area: 163.422 m2 
yplus max: 67.5061, yplus min: 2.11747 
position of yplus max: -12.1045 -1.25713 0.0864816 
yplus prom: 42.9063 
forces: 3040.331263 -0.207582 -880.944779 
Drag coefficient: 0.848470 
Lateral coefficient: -0.000058 
Lift coefficient: -0.245847 
torque (ref. CG): 0.290615 (roll) -1117.299381 (pitch) 1.266252 (yaw) 
----------------------------------------------------- 
step 12, time 0.009600 
bounding box of vehicle: xmin -12.2 -1.30003 -2.38524e-18, xmax 2.38524e-18 1.30003 3.60011m 
gts area: 163.422 m2 
yplus max: 67.5467, yplus min: 2.08293 
position of yplus max: -12.1045 -1.25713 0.0864816 
yplus prom: 42.8934 
forces: 3083.630414 -0.233997 -879.009715 
Drag coefficient: 0.860553 
Lateral coefficient: -0.000065 
Lift coefficient: -0.245307 
torque (ref. CG): 0.327595 (roll) -1044.876682 (pitch) 1.427379 (yaw) 
----------------------------------------------------- 
step 13, time 0.010400 
bounding box of vehicle: xmin -12.2 -1.30003 -2.38524e-18, xmax 2.38524e-18 1.30003 3.60011m 
gts area: 163.422 m2 
yplus max: 67.5673, yplus min: 2.06072 
position of yplus max: -12.1045 -1.25713 0.0864816 
yplus prom: 42.8896 
forces: 3113.799897 -0.265586 -877.537583 
Drag coefficient: 0.868973 
Lateral coefficient: -0.000074 
Lift coefficient: -0.244896 
torque (ref. CG): 0.371820 (roll) -993.659399 (pitch) 1.620075 (yaw) 
----------------------------------------------------- 
step 14, time 0.011200 
bounding box of vehicle: xmin -12.2 -1.30003 -2.38524e-18, xmax 2.38524e-18 1.30003 3.60011m 
gts area: 163.422 m2 
yplus max: 67.5744, yplus min: 2.04886 
position of yplus max: -12.1045 -1.25713 0.0864816 
yplus prom: 42.8949 
forces: 3134.794977 -0.299016 -876.438894 
Drag coefficient: 0.874832 
Lateral coefficient: -0.000083 
Lift coefficient: -0.244589 
torque (ref. CG): 0.418622 (roll) -957.564287 (pitch) 1.823995 (yaw) 
----------------------------------------------------- 
step 15, time 0.012000 
bounding box of vehicle: xmin -12.2 -1.30003 -2.38524e-18, xmax 2.38524e-18 1.30003 3.60011m 
gts area: 163.422 m2 
yplus max: 67.5719, yplus min: 1.96047 
position of yplus max: -12.1045 -1.25713 0.0864816 
yplus prom: 42.9096 
forces: 3148.081083 -0.323475 -875.638324 
Drag coefficient: 0.878540 
Lateral coefficient: -0.000090 
Lift coefficient: -0.244366 
torque (ref. CG): 0.452865 (roll) -934.080258 (pitch) 1.973197 (yaw) 
----------------------------------------------------- 
step 16, time 0.012800 
bounding box of vehicle: xmin -12.2 -1.30003 -2.38524e-18, xmax 2.38524e-18 1.30003 3.60011m 
gts area: 163.422 m2 
yplus max: 67.5626, yplus min: 2.05293 
position of yplus max: -12.1045 -1.25713 0.0864816 
yplus prom: 42.9336 
forces: 3155.733571 -0.335100 -874.844566 
Drag coefficient: 0.880675 
Lateral coefficient: -0.000094 
Lift coefficient: -0.244144 
torque (ref. CG): 0.469139 (roll) -918.524854 (pitch) 2.044108 (yaw) 
----------------------------------------------------- 
step 17, time 0.013600 
bounding box of vehicle: xmin -12.2 -1.30003 -2.38524e-18, xmax 2.38524e-18 1.30003 3.60011m 
gts area: 163.422 m2 
yplus max: 67.5486, yplus min: 1.57094 
position of yplus max: -12.1045 -1.25713 0.0864816 
yplus prom: 42.9668 
forces: 3158.767034 -0.276108 -874.120815 
Drag coefficient: 0.881522 
Lateral coefficient: -0.000077 
Lift coefficient: -0.243942 
torque (ref. CG): 0.386551 (roll) -909.863126 (pitch) 1.684260 (yaw) 
----------------------------------------------------- 
step 18, time 0.014400 
bounding box of vehicle: xmin -12.2 -1.30003 -2.38524e-18, xmax 2.38524e-18 1.30003 3.60011m 
gts area: 163.422 m2 
yplus max: 67.5312, yplus min: 1.92399 
position of yplus max: -12.1045 -1.25713 0.0864816 
yplus prom: 43.0088 
forces: 3157.744172 -0.328608 -872.931411 
Drag coefficient: 0.881236 
Lateral coefficient: -0.000092 
Lift coefficient: -0.243610 
torque (ref. CG): 0.460051 (roll) -904.039764 (pitch) 2.004510 (yaw) 
----------------------------------------------------- 
step 19, time 0.015200 
bounding box of vehicle: xmin -12.2 -1.30003 -2.38524e-18, xmax 2.38524e-18 1.30003 3.60011m 
gts area: 163.422 m2 
yplus max: 67.5116, yplus min: 1.88661 
position of yplus max: -12.1045 -1.25713 0.0864816 
yplus prom: 43.0589 
forces: 3153.050799 -0.310681 -871.972999 
Drag coefficient: 0.879927 
Lateral coefficient: -0.000087 
Lift coefficient: -0.243343 
torque (ref. CG): 0.434953 (roll) -904.764177 (pitch) 1.895154 (yaw) 
----------------------------------------------------- 
step 20, time 0.016000 
bounding box of vehicle: xmin -12.2 -1.30003 -2.38524e-18, xmax 2.38524e-18 1.30003 3.60011m 
gts area: 163.422 m2 
yplus max: 67.4906, yplus min: 1.88143 
position of yplus max: -12.1045 -1.25713 0.0864816 
yplus prom: 43.1165 
forces: 3145.827979 -0.281194 -871.034220 
Drag coefficient: 0.877911 
Lateral coefficient: -0.000078 
Lift coefficient: -0.243081 
torque (ref. CG): 0.393671 (roll) -909.149571 (pitch) 1.715282 (yaw) 
----------------------------------------------------- 
step 21, time 0.016800 
bounding box of vehicle: xmin -12.2 -1.30003 -2.38524e-18, xmax 2.38524e-18 1.30003 3.60011m 
gts area: 163.422 m2 
yplus max: 67.4687, yplus min: 1.58981 
position of yplus max: -12.1045 -1.25713 0.0864816 
yplus prom: 43.1802 
forces: 3136.944653 -0.254385 -870.101911 
Drag coefficient: 0.875432 
Lateral coefficient: -0.000071 
Lift coefficient: -0.242821 
torque (ref. CG): 0.356139 (roll) -915.899143 (pitch) 1.551748 (yaw) 
----------------------------------------------------- 
step 22, time 0.017600 
bounding box of vehicle: xmin -12.2 -1.30003 -2.38524e-18, xmax 2.38524e-18 1.30003 3.60011m 
gts area: 163.422 m2 
yplus max: 67.4464, yplus min: 1.64054 
position of yplus max: -12.1045 -1.25713 0.0864816 
yplus prom: 43.2488 
forces: 3126.784369 -0.240397 -869.212331 
Drag coefficient: 0.872596 
Lateral coefficient: -0.000067 
Lift coefficient: -0.242572 
torque (ref. CG): 0.336555 (roll) -924.697104 (pitch) 1.466419 (yaw) 
----------------------------------------------------- 
step 23, time 0.018400 
bounding box of vehicle: xmin -12.2 -1.30003 -2.38524e-18, xmax 2.38524e-18 1.30003 3.60011m 
gts area: 163.422 m2 
yplus max: 67.4241, yplus min: 1.75761 
position of yplus max: -12.1045 -1.25713 0.0864816 
yplus prom: 43.3207 
forces: 3115.361653 -0.210083 -868.436623 
Drag coefficient: 0.869409 
Lateral coefficient: -0.000059 
Lift coefficient: -0.242356 
torque (ref. CG): 0.294117 (roll) -935.957085 (pitch) 1.281508 (yaw) 
----------------------------------------------------- 
step 24, time 0.019200 
bounding box of vehicle: xmin -12.2 -1.30003 -2.38524e-18, xmax 2.38524e-18 1.30003 3.60011m 
gts area: 163.422 m2 
yplus max: 67.4021, yplus min: 1.43289 
position of yplus max: -12.1045 -1.25713 0.0864816 
yplus prom: 43.3944 
forces: 3103.160036 -0.224729 -867.647884 
Drag coefficient: 0.866004 
Lateral coefficient: -0.000063 
Lift coefficient: -0.242136 
torque (ref. CG): 0.314621 (roll) -948.228041 (pitch) 1.370849 (yaw) 
----------------------------------------------------- 
step 25, time 0.020000 
bounding box of vehicle: xmin -12.2 -1.30003 -2.38524e-18, xmax 2.38524e-18 1.30003 3.60011m 
gts area: 163.422 m2 
yplus max: 67.3805, yplus min: 0.848873 
position of yplus max: -12.1045 -1.25713 0.0864816 
yplus prom: 43.4684 
forces: 3089.949047 -0.214584 -866.995501 
Drag coefficient: 0.862317 
Lateral coefficient: -0.000060 
Lift coefficient: -0.241954 
torque (ref. CG): 0.300418 (roll) -962.743891 (pitch) 1.308965 (yaw) 
----------------------------------------------------- 
step 26, time 0.020800 
bounding box of vehicle: xmin -12.2 -1.30003 -2.38524e-18, xmax 2.38524e-18 1.30003 3.60011m 
gts area: 163.422 m2 
yplus max: 67.3594, yplus min: 0.953444 
position of yplus max: -12.1045 -1.25713 0.0864816 
yplus prom: 43.5413 
forces: 3075.962382 -0.211007 -866.245087 
Drag coefficient: 0.858413 
Lateral coefficient: -0.000059 
Lift coefficient: -0.241744 
torque (ref. CG): 0.295410 (roll) -977.747697 (pitch) 1.287144 (yaw) 
----------------------------------------------------- 
step 27, time 0.021600 
bounding box of vehicle: xmin -12.2 -1.30003 -2.38524e-18, xmax 2.38524e-18 1.30003 3.60011m 
gts area: 163.422 m2 
yplus max: 67.3391, yplus min: 1.2031 
position of yplus max: -12.1045 -1.25713 0.0864816 
yplus prom: 43.6118 
forces: 3062.378132 -0.208077 -865.635101 
Drag coefficient: 0.854622 
Lateral coefficient: -0.000058 
Lift coefficient: -0.241574 
torque (ref. CG): 0.291308 (roll) -993.044734 (pitch) 1.269272 (yaw) 
----------------------------------------------------- 
step 28, time 0.022400 
bounding box of vehicle: xmin -12.2 -1.30003 -2.38524e-18, xmax 2.38524e-18 1.30003 3.60011m 
gts area: 163.422 m2 
yplus max: 67.3196, yplus min: 1.55862 
position of yplus max: -12.1045 -1.25713 0.0864816 
yplus prom: 43.6789 
forces: 3048.916174 -0.207413 -865.129370 
Drag coefficient: 0.850866 
Lateral coefficient: -0.000058 
Lift coefficient: -0.241433 
torque (ref. CG): 0.290378 (roll) -1008.806512 (pitch) 1.265219 (yaw) 
----------------------------------------------------- 
step 29, time 0.023200 
bounding box of vehicle: xmin -12.2 -1.30003 -2.38524e-18, xmax 2.38524e-18 1.30003 3.60011m 
gts area: 163.422 m2 
yplus max: 67.3009, yplus min: 1.48881 
position of yplus max: -12.1045 -1.25713 0.0864816 
yplus prom: 43.7419 
forces: 3035.506353 -0.204731 -864.652486 
Drag coefficient: 0.847123 
Lateral coefficient: -0.000057 
Lift coefficient: -0.241300 
torque (ref. CG): 0.286623 (roll) -1024.671272 (pitch) 1.248857 (yaw) 
----------------------------------------------------- 
step 30, time 0.024000 
bounding box of vehicle: xmin -12.2 -1.30003 -2.38524e-18, xmax 2.38524e-18 1.30003 3.60011m 
gts area: 163.422 m2 
yplus max: 67.2831, yplus min: 1.5331 
position of yplus max: -12.1045 -1.25713 0.0864816 
yplus prom: 43.8002 
forces: 3022.037567 -0.201840 -864.161712 
Drag coefficient: 0.843365 
Lateral coefficient: -0.000056 
Lift coefficient: -0.241163 
torque (ref. CG): 0.282576 (roll) -1040.533852 (pitch) 1.231224 (yaw) 
----------------------------------------------------- 
step 31, time 0.024800 
bounding box of vehicle: xmin -12.2 -1.30003 -2.38524e-18, xmax 2.38524e-18 1.30003 3.60011m 
gts area: 163.422 m2 
yplus max: 67.2662, yplus min: 1.14831 
position of yplus max: -12.1045 -1.25713 0.0864816 
yplus prom: 43.8536 
forces: 3008.919350 -0.198668 -863.662973 
Drag coefficient: 0.839704 
Lateral coefficient: -0.000055 
Lift coefficient: -0.241024 
torque (ref. CG): 0.278135 (roll) -1055.857043 (pitch) 1.211874 (yaw) 
----------------------------------------------------- 
step 32, time 0.025600 
bounding box of vehicle: xmin -12.2 -1.30003 -2.38524e-18, xmax 2.38524e-18 1.30003 3.60011m 
gts area: 163.422 m2 
yplus max: 67.2503, yplus min: 1.43343 
position of yplus max: -12.1045 -1.25713 0.0864816 
yplus prom: 43.902 
forces: 2996.037133 -0.195194 -863.157001 
Drag coefficient: 0.836109 
Lateral coefficient: -0.000054 
Lift coefficient: -0.240883 
torque (ref. CG): 0.273272 (roll) -1070.805718 (pitch) 1.190684 (yaw) 
----------------------------------------------------- 
step 33, time 0.026400 
bounding box of vehicle: xmin -12.2 -1.30003 -2.38524e-18, xmax 2.38524e-18 1.30003 3.60011m 
gts area: 163.422 m2 
yplus max: 67.2353, yplus min: 1.0845 
position of yplus max: -12.1045 -1.25713 0.0864816 
yplus prom: 43.9455 
forces: 2983.375314 -0.191490 -862.639020 
Drag coefficient: 0.832575 
Lateral coefficient: -0.000053 
Lift coefficient: -0.240738 
torque (ref. CG): 0.268086 (roll) -1085.372583 (pitch) 1.168089 (yaw) 
----------------------------------------------------- 
step 34, time 0.027200 
bounding box of vehicle: xmin -12.2 -1.30003 -2.38524e-18, xmax 2.38524e-18 1.30003 3.60011m 
gts area: 163.422 m2 
yplus max: 67.2212, yplus min: 1.26871 
position of yplus max: -12.1045 -1.25713 0.0864816 
yplus prom: 43.9845 
forces: 2970.639470 -0.187689 -862.121544 
Drag coefficient: 0.829021 
Lateral coefficient: -0.000052 
Lift coefficient: -0.240594 
torque (ref. CG): 0.262765 (roll) -1100.046158 (pitch) 1.144903 (yaw) 
----------------------------------------------------- 
step 35, time 0.028000 
bounding box of vehicle: xmin -12.2 -1.30003 -2.38524e-18, xmax 2.38524e-18 1.30003 3.60011m 
gts area: 163.422 m2 
yplus max: 67.208, yplus min: 1.26412 
position of yplus max: -12.1045 -1.25713 0.0864816 
yplus prom: 44.0191 
forces: 2957.803770 -0.184291 -861.611299 
Drag coefficient: 0.825439 
Lateral coefficient: -0.000051 
Lift coefficient: -0.240451 
torque (ref. CG): 0.258007 (roll) -1114.903647 (pitch) 1.124172 (yaw) 
----------------------------------------------------- 
step 36, time 0.028800 
bounding box of vehicle: xmin -12.2 -1.30003 -2.38524e-18, xmax 2.38524e-18 1.30003 3.60011m 
gts area: 163.422 m2 
yplus max: 67.1956, yplus min: 1.26192 
position of yplus max: -12.1045 -1.25713 0.0864816 
yplus prom: 44.0498 
forces: 2945.034417 -0.180007 -861.123545 
Drag coefficient: 0.821875 
Lateral coefficient: -0.000050 
Lift coefficient: -0.240315 
torque (ref. CG): 0.252010 (roll) -1129.805444 (pitch) 1.098044 (yaw) 
----------------------------------------------------- 
step 37, time 0.029600 
bounding box of vehicle: xmin -12.2 -1.30003 -2.38524e-18, xmax 2.38524e-18 1.30003 3.60011m 
gts area: 163.422 m2 
yplus max: 67.1841, yplus min: 1.09828 
position of yplus max: -12.1045 -1.25713 0.0864816 
yplus prom: 44.0769 
forces: 2932.263757 -0.176339 -860.652096 
Drag coefficient: 0.818311 
Lateral coefficient: -0.000049 
Lift coefficient: -0.240183 
torque (ref. CG): 0.246875 (roll) -1144.808525 (pitch) 1.075668 (yaw) 
----------------------------------------------------- 
step 38, time 0.030400 
bounding box of vehicle: xmin -12.2 -1.30003 -2.38524e-18, xmax 2.38524e-18 1.30003 3.60011m 
gts area: 163.422 m2 
yplus max: 67.1734, yplus min: 1.22577 
position of yplus max: -12.1045 -1.25713 0.0864816 
yplus prom: 44.101 
forces: 2919.417157 -0.172088 -860.195787 
Drag coefficient: 0.814726 
Lateral coefficient: -0.000048 
Lift coefficient: -0.240056 
torque (ref. CG): 0.240924 (roll) -1160.010278 (pitch) 1.049738 (yaw) 
----------------------------------------------------- 
step 39, time 0.031200 
bounding box of vehicle: xmin -12.2 -1.30003 -2.38524e-18, xmax 2.38524e-18 1.30003 3.60011m 
gts area: 163.422 m2 
yplus max: 67.1635, yplus min: 1.01913 
position of yplus max: -12.1045 -1.25713 0.0864816 
yplus prom: 44.1224 
forces: 2906.499914 -0.167798 -859.728800 
Drag coefficient: 0.811121 
Lateral coefficient: -0.000047 
Lift coefficient: -0.239926 
torque (ref. CG): 0.234918 (roll) -1175.245803 (pitch) 1.023571 (yaw) 
----------------------------------------------------- 
step 40, time 0.032000 
bounding box of vehicle: xmin -12.2 -1.30003 -2.38524e-18, xmax 2.38524e-18 1.30003 3.60011m 
gts area: 163.422 m2 
yplus max: 67.1543, yplus min: 0.982389 
position of yplus max: -12.1045 -1.25713 0.0864816 
yplus prom: 44.1414 
forces: 2893.510282 -0.169723 -859.277334 
Drag coefficient: 0.807496 
Lateral coefficient: -0.000047 
Lift coefficient: -0.239800 
torque (ref. CG): 0.237613 (roll) -1190.677344 (pitch) 1.035312 (yaw) 
----------------------------------------------------- 
step 41, time 0.032800 
bounding box of vehicle: xmin -12.2 -1.30003 -2.38524e-18, xmax 2.38524e-18 1.30003 3.60011m 
gts area: 163.422 m2 
yplus max: 67.1457, yplus min: 0.971059 
position of yplus max: -12.1045 -1.25713 0.0864816 
yplus prom: 44.1585 
forces: 2880.355223 -0.159256 -858.924315 
Drag coefficient: 0.803825 
Lateral coefficient: -0.000044 
Lift coefficient: -0.239701 
torque (ref. CG): 0.222958 (roll) -1206.941006 (pitch) 0.971462 (yaw) 
----------------------------------------------------- 
step 42, time 0.033600 
bounding box of vehicle: xmin -12.2 -1.30003 -2.38524e-18, xmax 2.38524e-18 1.30003 3.60011m 
gts area: 163.422 m2 
yplus max: 67.1378, yplus min: 0.761997 
position of yplus max: -12.1045 -1.25713 0.0864816 
yplus prom: 44.1738 
forces: 2867.213174 -0.156247 -858.596253 
Drag coefficient: 0.800157 
Lateral coefficient: -0.000044 
Lift coefficient: -0.239610 
torque (ref. CG): 0.218746 (roll) -1223.338697 (pitch) 0.953106 (yaw) 
----------------------------------------------------- 
step 43, time 0.034400 
bounding box of vehicle: xmin -12.2 -1.30003 -2.38524e-18, xmax 2.38524e-18 1.30003 3.60011m 
gts area: 163.422 m2 
yplus max: 67.1305, yplus min: 0.62386 
position of yplus max: -12.1045 -1.25713 0.0864816 
yplus prom: 44.1876 
forces: 2854.120446 -0.151868 -858.243580 
Drag coefficient: 0.796504 
Lateral coefficient: -0.000042 
Lift coefficient: -0.239511 
torque (ref. CG): 0.212616 (roll) -1239.517213 (pitch) 0.926397 (yaw) 
----------------------------------------------------- 
step 44, time 0.035200 
bounding box of vehicle: xmin -12.2 -1.30003 -2.38524e-18, xmax 2.38524e-18 1.30003 3.60011m 
gts area: 163.422 m2 
yplus max: 67.1238, yplus min: 0.55522 
position of yplus max: -12.1045 -1.25713 0.0864816 
yplus prom: 44.2002 
forces: 2840.915537 -0.148277 -857.996493 
Drag coefficient: 0.792819 
Lateral coefficient: -0.000041 
Lift coefficient: -0.239442 
torque (ref. CG): 0.207588 (roll) -1256.496855 (pitch) 0.904490 (yaw) 
----------------------------------------------------- 
step 45, time 0.036000 
bounding box of vehicle: xmin -12.2 -1.30003 -2.38524e-18, xmax 2.38524e-18 1.30003 3.60011m 
gts area: 163.422 m2 
yplus max: 67.1175, yplus min: 0.651766 
position of yplus max: -12.1045 -1.25713 0.0864816 
yplus prom: 44.2117 
forces: 2827.990875 -0.145323 -857.746399 
Drag coefficient: 0.789212 
Lateral coefficient: -0.000041 
Lift coefficient: -0.239373 
torque (ref. CG): 0.203453 (roll) -1273.065806 (pitch) 0.886473 (yaw) 
----------------------------------------------------- 
step 46, time 0.036800 
bounding box of vehicle: xmin -12.2 -1.30003 -2.38524e-18, xmax 2.38524e-18 1.30003 3.60011m 
gts area: 163.422 m2 
yplus max: 67.1117, yplus min: 0.294767 
position of yplus max: -12.1045 -1.25713 0.0864816 
yplus prom: 44.2222 
forces: 2815.335956 -0.141001 -857.466635 
Drag coefficient: 0.785680 
Lateral coefficient: -0.000039 
Lift coefficient: -0.239295 
torque (ref. CG): 0.197401 (roll) -1289.076136 (pitch) 0.860105 (yaw) 
----------------------------------------------------- 
step 47, time 0.037600 
bounding box of vehicle: xmin -12.2 -1.30003 -2.38524e-18, xmax 2.38524e-18 1.30003 3.60011m 
gts area: 163.422 m2 
yplus max: 67.1063, yplus min: 0.908543 
position of yplus max: -12.1045 -1.25713 0.0864816 
yplus prom: 44.2319 
forces: 2802.801373 -0.138914 -857.275146 
Drag coefficient: 0.782182 
Lateral coefficient: -0.000039 
Lift coefficient: -0.239241 
torque (ref. CG): 0.194480 (roll) -1305.456468 (pitch) 0.847376 (yaw) 
----------------------------------------------------- 
step 48, time 0.038400 
bounding box of vehicle: xmin -12.2 -1.30003 -2.38524e-18, xmax 2.38524e-18 1.30003 3.60011m 
gts area: 163.422 m2 
yplus max: 67.1014, yplus min: 0.411492 
position of yplus max: -12.1045 -1.25713 0.0864816 
yplus prom: 44.2408 
forces: 2790.700899 -0.136359 -857.135419 
Drag coefficient: 0.778805 
Lateral coefficient: -0.000038 
Lift coefficient: -0.239202 
torque (ref. CG): 0.190902 (roll) -1321.544796 (pitch) 0.831789 (yaw) 
----------------------------------------------------- 
step 49, time 0.039200 
bounding box of vehicle: xmin -12.2 -1.30003 -2.38524e-18, xmax 2.38524e-18 1.30003 3.60011m 
gts area: 163.422 m2 
yplus max: 67.0967, yplus min: 0.917255 
position of yplus max: -12.1045 -1.25713 0.0864816 
yplus prom: 44.2488 
forces: 2778.844633 -0.133195 -856.938945 
Drag coefficient: 0.775496 
Lateral coefficient: -0.000037 
Lift coefficient: -0.239147 
torque (ref. CG): 0.186472 (roll) -1336.945079 (pitch) 0.812487 (yaw) 
----------------------------------------------------- 
step 50, time 0.040000 
bounding box of vehicle: xmin -12.2 -1.30003 -2.38524e-18, xmax 2.38524e-18 1.30003 3.60011m 
gts area: 163.422 m2 
yplus max: 67.0924, yplus min: 0.704934 
position of yplus max: -12.1045 -1.25713 0.0864816 
yplus prom: 44.2561 
forces: 2767.023725 -0.130737 -856.730230 
Drag coefficient: 0.772197 
Lateral coefficient: -0.000036 
Lift coefficient: -0.239089 
torque (ref. CG): 0.183032 (roll) -1352.221190 (pitch) 0.797494 (yaw) 
----------------------------------------------------- 
step 51, time 0.040800 
bounding box of vehicle: xmin -12.2 -1.30003 -2.38524e-18, xmax 2.38524e-18 1.30003 3.60011m 
gts area: 163.422 m2 
yplus max: 67.0884, yplus min: 0.732568 
position of yplus max: -12.1045 -1.25713 0.0864816 
yplus prom: 44.2626 
forces: 2755.375070 -0.128147 -856.539802 
Drag coefficient: 0.768947 
Lateral coefficient: -0.000036 
Lift coefficient: -0.239036 
torque (ref. CG): 0.179406 (roll) -1367.367694 (pitch) 0.781699 (yaw) 
----------------------------------------------------- 
step 52, time 0.041600 
bounding box of vehicle: xmin -12.2 -1.30003 -2.38524e-18, xmax 2.38524e-18 1.30003 3.60011m 
gts area: 163.422 m2 
yplus max: 67.0847, yplus min: 0.96224 
position of yplus max: -12.1045 -1.25713 0.0864816 
yplus prom: 44.2686 
forces: 2743.864591 -0.125113 -856.332741 
Drag coefficient: 0.765734 
Lateral coefficient: -0.000035 
Lift coefficient: -0.238978 
torque (ref. CG): 0.175158 (roll) -1382.219295 (pitch) 0.763190 (yaw) 
----------------------------------------------------- 
step 53, time 0.042400 
bounding box of vehicle: xmin -12.2 -1.30003 -2.38524e-18, xmax 2.38524e-18 1.30003 3.60011m 
gts area: 163.422 m2 
yplus max: 67.0811, yplus min: 0.849342 
position of yplus max: -12.1045 -1.25713 0.0864816 
yplus prom: 44.2739 
forces: 2732.502585 -0.122457 -856.119898 
Drag coefficient: 0.762564 
Lateral coefficient: -0.000034 
Lift coefficient: -0.238919 
torque (ref. CG): 0.171440 (roll) -1396.827760 (pitch) 0.746990 (yaw) 
----------------------------------------------------- 
step 54, time 0.043200 
bounding box of vehicle: xmin -12.2 -1.30003 -2.38524e-18, xmax 2.38524e-18 1.30003 3.60011m 
gts area: 163.422 m2 
yplus max: 67.0779, yplus min: 0.839448 
position of yplus max: -12.1045 -1.25713 0.0864816 
yplus prom: 44.2787 
forces: 2721.445704 -0.120909 -855.856453 
Drag coefficient: 0.759478 
Lateral coefficient: -0.000034 
Lift coefficient: -0.238845 
torque (ref. CG): 0.169273 (roll) -1410.700376 (pitch) 0.737547 (yaw) 
----------------------------------------------------- 
step 55, time 0.044000 
bounding box of vehicle: xmin -12.2 -1.30003 -2.38524e-18, xmax 2.38524e-18 1.30003 3.60011m 
gts area: 163.422 m2 
yplus max: 67.0747, yplus min: 0.396667 
position of yplus max: -12.1045 -1.25713 0.0864816 
yplus prom: 44.283 
forces: 2710.685439 -0.118045 -855.541582 
Drag coefficient: 0.756475 
Lateral coefficient: -0.000033 
Lift coefficient: -0.238757 
torque (ref. CG): 0.165263 (roll) -1423.844035 (pitch) 0.720072 (yaw) 
----------------------------------------------------- 
step 56, time 0.044800 
bounding box of vehicle: xmin -12.2 -1.30003 -2.38524e-18, xmax 2.38524e-18 1.30003 3.60011m 
gts area: 163.422 m2 
yplus max: 67.0718, yplus min: 0.464437 
position of yplus max: -12.1045 -1.25713 0.0864816 
yplus prom: 44.2871 
forces: 2700.067144 -0.114904 -855.207044 
Drag coefficient: 0.753512 
Lateral coefficient: -0.000032 
Lift coefficient: -0.238664 
torque (ref. CG): 0.160866 (roll) -1436.668968 (pitch) 0.700916 (yaw) 
----------------------------------------------------- 
step 57, time 0.045600 
bounding box of vehicle: xmin -12.2 -1.30003 -2.38524e-18, xmax 2.38524e-18 1.30003 3.60011m 
gts area: 163.422 m2 
yplus max: 67.0691, yplus min: 0.704176 
position of yplus max: -12.1045 -1.25713 0.0864816 
yplus prom: 44.2909 
forces: 2689.589543 -0.114090 -854.823261 
Drag coefficient: 0.750588 
Lateral coefficient: -0.000032 
Lift coefficient: -0.238557 
torque (ref. CG): 0.159726 (roll) -1448.996534 (pitch) 0.695951 (yaw) 
----------------------------------------------------- 
step 58, time 0.046400 
bounding box of vehicle: xmin -12.2 -1.30003 -2.38524e-18, xmax 2.38524e-18 1.30003 3.60011m 
gts area: 163.422 m2 
yplus max: 67.0664, yplus min: 0.845729 
position of yplus max: -12.1045 -1.25713 0.0864816 
yplus prom: 44.2941 
forces: 2679.333410 -0.111130 -854.418108 
Drag coefficient: 0.747726 
Lateral coefficient: -0.000031 
Lift coefficient: -0.238444 
torque (ref. CG): 0.155581 (roll) -1460.883682 (pitch) 0.677891 (yaw) 
----------------------------------------------------- 
step 59, time 0.047200 
bounding box of vehicle: xmin -12.2 -1.30003 -2.38524e-18, xmax 2.38524e-18 1.30003 3.60011m 
gts area: 163.422 m2 
yplus max: 67.064, yplus min: 0.922085 
position of yplus max: -12.1045 -1.25713 0.0864816 
yplus prom: 44.2968 
forces: 2669.305845 -0.109282 -853.986618 
Drag coefficient: 0.744927 
Lateral coefficient: -0.000030 
Lift coefficient: -0.238323 
torque (ref. CG): 0.152995 (roll) -1472.290187 (pitch) 0.666623 (yaw) 
----------------------------------------------------- 
step 60, time 0.048000 
bounding box of vehicle: xmin -12.2 -1.30003 -2.38524e-18, xmax 2.38524e-18 1.30003 3.60011m 
gts area: 163.422 m2 
yplus max: 67.0616, yplus min: 0.936346 
position of yplus max: -12.1045 -1.25713 0.0864816 
yplus prom: 44.299 
forces: 2659.444172 -0.107012 -853.538987 
Drag coefficient: 0.742175 
Lateral coefficient: -0.000030 
Lift coefficient: -0.238198 
torque (ref. CG): 0.149817 (roll) -1483.365979 (pitch) 0.652775 (yaw) 
----------------------------------------------------- 
step 61, time 0.048800 
bounding box of vehicle: xmin -12.2 -1.30003 -2.38524e-18, xmax 2.38524e-18 1.30003 3.60011m 
gts area: 163.422 m2 
yplus max: 67.0593, yplus min: 0.978084 
position of yplus max: -12.1045 -1.25713 0.0864816 
yplus prom: 44.3006 
forces: 2649.696394 -0.104215 -853.089121 
Drag coefficient: 0.739455 
Lateral coefficient: -0.000029 
Lift coefficient: -0.238073 
torque (ref. CG): 0.145901 (roll) -1494.268690 (pitch) 0.635713 (yaw) 
----------------------------------------------------- 
step 62, time 0.049600 
bounding box of vehicle: xmin -12.2 -1.30003 -2.38524e-18, xmax 2.38524e-18 1.30003 3.60011m 
gts area: 163.422 m2 
yplus max: 67.0572, yplus min: 1.02351 
position of yplus max: -12.1045 -1.25713 0.0864816 
yplus prom: 44.3017 
forces: 2640.148471 -0.103000 -852.625447 
Drag coefficient: 0.736790 
Lateral coefficient: -0.000029 
Lift coefficient: -0.237943 
torque (ref. CG): 0.144200 (roll) -1504.807365 (pitch) 0.628301 (yaw) 
----------------------------------------------------- 
step 63, time 0.050400 
bounding box of vehicle: xmin -12.2 -1.30003 -2.38524e-18, xmax 2.38524e-18 1.30003 3.60011m 
gts area: 163.422 m2 
yplus max: 67.0551, yplus min: 1.12835 
position of yplus max: -12.1045 -1.25713 0.0864816 
yplus prom: 44.3023 
forces: 2630.657749 -0.101063 -852.170305 
Drag coefficient: 0.734142 
Lateral coefficient: -0.000028 
Lift coefficient: -0.237816 
torque (ref. CG): 0.141489 (roll) -1515.318010 (pitch) 0.616487 (yaw) 
----------------------------------------------------- 
step 64, time 0.051200 
bounding box of vehicle: xmin -12.2 -1.30003 -2.38524e-18, xmax 2.38524e-18 1.30003 3.60011m 
gts area: 163.422 m2 
yplus max: 67.0531, yplus min: 1.17783 
position of yplus max: -12.1045 -1.25713 0.0864816 
yplus prom: 44.3024 
forces: 2621.372034 -0.099495 -851.687358 
Drag coefficient: 0.731550 
Lateral coefficient: -0.000028 
Lift coefficient: -0.237682 
torque (ref. CG): 0.139293 (roll) -1525.372038 (pitch) 0.606921 (yaw) 
----------------------------------------------------- 
step 65, time 0.052000 
bounding box of vehicle: xmin -12.2 -1.30003 -2.38524e-18, xmax 2.38524e-18 1.30003 3.60011m 
gts area: 163.422 m2 
yplus max: 67.0512, yplus min: 0.82339 
position of yplus max: -12.1045 -1.25713 0.0864816 
yplus prom: 44.3021 
forces: 2612.262819 -0.097695 -851.168117 
Drag coefficient: 0.729008 
Lateral coefficient: -0.000027 
Lift coefficient: -0.237537 
torque (ref. CG): 0.136773 (roll) -1534.957569 (pitch) 0.595938 (yaw) 
----------------------------------------------------- 
step 66, time 0.052800 
bounding box of vehicle: xmin -12.2 -1.30003 -2.38524e-18, xmax 2.38524e-18 1.30003 3.60011m 
gts area: 163.422 m2 
yplus max: 67.0494, yplus min: 1.2806 
position of yplus max: -12.1045 -1.25713 0.0864816 
yplus prom: 44.3013 
forces: 2603.258509 -0.096261 -850.633385 
Drag coefficient: 0.726495 
Lateral coefficient: -0.000027 
Lift coefficient: -0.237388 
torque (ref. CG): 0.134765 (roll) -1544.301739 (pitch) 0.587189 (yaw) 
----------------------------------------------------- 
step 67, time 0.053600 
bounding box of vehicle: xmin -12.2 -1.30003 -2.38524e-18, xmax 2.38524e-18 1.30003 3.60011m 
gts area: 163.422 m2 
yplus max: 67.0476, yplus min: 1.54171 
position of yplus max: -12.1045 -1.25713 0.0864816 
yplus prom: 44.3001 
forces: 2594.376050 -0.093854 -850.101689 
Drag coefficient: 0.724016 
Lateral coefficient: -0.000026 
Lift coefficient: -0.237239 
torque (ref. CG): 0.131395 (roll) -1553.493832 (pitch) 0.572507 (yaw) 
----------------------------------------------------- 
step 68, time 0.054400 
bounding box of vehicle: xmin -12.2 -1.30003 -2.38524e-18, xmax 2.38524e-18 1.30003 3.60011m 
gts area: 163.422 m2 
yplus max: 67.0458, yplus min: 0.739902 
position of yplus max: -12.1045 -1.25713 0.0864816 
yplus prom: 44.2984 
forces: 2585.668602 -0.092228 -849.556471 
Drag coefficient: 0.721586 
Lateral coefficient: -0.000026 
Lift coefficient: -0.237087 
torque (ref. CG): 0.129119 (roll) -1562.358432 (pitch) 0.562589 (yaw) 
----------------------------------------------------- 
step 69, time 0.055200 
bounding box of vehicle: xmin -12.2 -1.30003 -2.38524e-18, xmax 2.38524e-18 1.30003 3.60011m 
gts area: 163.422 m2 
yplus max: 67.0442, yplus min: 0.586965 
position of yplus max: -12.1045 -1.25713 0.0864816 
yplus prom: 44.2964 
forces: 2577.106931 -0.089934 -849.005920 
Drag coefficient: 0.719197 
Lateral coefficient: -0.000025 
Lift coefficient: -0.236933 
torque (ref. CG): 0.125907 (roll) -1570.986408 (pitch) 0.548595 (yaw) 
----------------------------------------------------- 
step 70, time 0.056000 
bounding box of vehicle: xmin -12.2 -1.30003 -2.38524e-18, xmax 2.38524e-18 1.30003 3.60011m 
gts area: 163.422 m2 
yplus max: 67.0425, yplus min: 0.726733 
position of yplus max: -12.1045 -1.25713 0.0864816 
yplus prom: 44.294 
forces: 2568.735093 -0.071544 -848.428693 
Drag coefficient: 0.716861 
Lateral coefficient: -0.000020 
Lift coefficient: -0.236772 
torque (ref. CG): 0.100161 (roll) -1579.185897 (pitch) 0.436416 (yaw) 
----------------------------------------------------- 
step 71, time 0.056800 
bounding box of vehicle: xmin -12.2 -1.30003 -2.38524e-18, xmax 2.38524e-18 1.30003 3.60011m 
gts area: 163.422 m2 
yplus max: 67.0409, yplus min: 0.500194 
position of yplus max: -12.1045 -1.25713 0.0864816 
yplus prom: 44.2913 
forces: 2560.279992 -0.101903 -847.961781 
Drag coefficient: 0.714501 
Lateral coefficient: -0.000028 
Lift coefficient: -0.236642 
torque (ref. CG): 0.142664 (roll) -1588.174875 (pitch) 0.621608 (yaw) 
----------------------------------------------------- 
step 72, time 0.057600 
bounding box of vehicle: xmin -12.2 -1.30003 -2.38524e-18, xmax 2.38524e-18 1.30003 3.60011m 
gts area: 163.422 m2 
yplus max: 67.0394, yplus min: 0.77849 
position of yplus max: -12.1045 -1.25713 0.0864816 
yplus prom: 44.2883 
forces: 2552.206105 -0.068882 -847.359147 
Drag coefficient: 0.712248 
Lateral coefficient: -0.000019 
Lift coefficient: -0.236474 
torque (ref. CG): 0.096435 (roll) -1595.802247 (pitch) 0.420182 (yaw) 
----------------------------------------------------- 
step 73, time 0.058400 
bounding box of vehicle: xmin -12.2 -1.30003 -2.38524e-18, xmax 2.38524e-18 1.30003 3.60011m 
gts area: 163.422 m2 
yplus max: 67.0379, yplus min: 1.42084 
position of yplus max: -12.1045 -1.25713 0.0864816 
yplus prom: 44.285 
forces: 2544.070234 -0.080622 -846.835887 
Drag coefficient: 0.709978 
Lateral coefficient: -0.000022 
Lift coefficient: -0.236328 
torque (ref. CG): 0.112870 (roll) -1604.000584 (pitch) 0.491793 (yaw) 
----------------------------------------------------- 
step 74, time 0.059200 
bounding box of vehicle: xmin -12.2 -1.30003 -2.38524e-18, xmax 2.38524e-18 1.30003 3.60011m 
gts area: 163.422 m2 
yplus max: 67.0364, yplus min: 1.16234 
position of yplus max: -12.1045 -1.25713 0.0864816 
yplus prom: 44.2814 
forces: 2536.084318 -0.080825 -846.297871 
Drag coefficient: 0.707749 
Lateral coefficient: -0.000023 
Lift coefficient: -0.236178 
torque (ref. CG): 0.113155 (roll) -1611.898968 (pitch) 0.493030 (yaw) 
----------------------------------------------------- 
step 75, time 0.060000 
bounding box of vehicle: xmin -12.2 -1.30003 -2.38524e-18, xmax 2.38524e-18 1.30003 3.60011m 
gts area: 163.422 m2 
yplus max: 67.035, yplus min: 1.37974 
position of yplus max: -12.1045 -1.25713 0.0864816 
yplus prom: 44.2775 
forces: 2528.203423 -0.080329 -845.741031 
Drag coefficient: 0.705550 
Lateral coefficient: -0.000022 
Lift coefficient: -0.236022 
torque (ref. CG): 0.112461 (roll) -1619.535495 (pitch) 0.490008 (yaw) 
----------------------------------------------------- 
step 76, time 0.060800 
bounding box of vehicle: xmin -12.2 -1.30003 -2.38524e-18, xmax 2.38524e-18 1.30003 3.60011m 
gts area: 163.422 m2 
yplus max: 67.0336, yplus min: 1.35934 
position of yplus max: -12.1045 -1.25713 0.0864816 
yplus prom: 44.2733 
forces: 2520.449223 -0.078118 -845.180925 
Drag coefficient: 0.703386 
Lateral coefficient: -0.000022 
Lift coefficient: -0.235866 
torque (ref. CG): 0.109365 (roll) -1626.974730 (pitch) 0.476517 (yaw) 
----------------------------------------------------- 
step 77, time 0.061600 
bounding box of vehicle: xmin -12.2 -1.30003 -2.38524e-18, xmax 2.38524e-18 1.30003 3.60011m 
gts area: 163.422 m2 
yplus max: 67.0322, yplus min: 1.05068 
position of yplus max: -12.1045 -1.25713 0.0864816 
yplus prom: 44.2689 
forces: 2512.782834 -0.075706 -844.617147 
Drag coefficient: 0.701246 
Lateral coefficient: -0.000021 
Lift coefficient: -0.235709 
torque (ref. CG): 0.105988 (roll) -1634.268631 (pitch) 0.461804 (yaw) 
----------------------------------------------------- 
step 78, time 0.062400 
bounding box of vehicle: xmin -12.2 -1.30003 -2.38524e-18, xmax 2.38524e-18 1.30003 3.60011m 
gts area: 163.422 m2 
yplus max: 67.0309, yplus min: 1.31933 
position of yplus max: -12.1045 -1.25713 0.0864816 
yplus prom: 44.2641 
forces: 2505.189415 -0.073039 -844.046743 
Drag coefficient: 0.699127 
Lateral coefficient: -0.000020 
Lift coefficient: -0.235549 
torque (ref. CG): 0.102255 (roll) -1641.419952 (pitch) 0.445541 (yaw) 
----------------------------------------------------- 
step 79, time 0.063200 
bounding box of vehicle: xmin -12.2 -1.30003 -2.38524e-18, xmax 2.38524e-18 1.30003 3.60011m 
gts area: 163.422 m2 
yplus max: 67.0296, yplus min: 0.881698 
position of yplus max: -12.1045 -1.25713 0.0864816 
yplus prom: 44.2591 
forces: 2497.666747 -0.071320 -843.467248 
Drag coefficient: 0.697028 
Lateral coefficient: -0.000020 
Lift coefficient: -0.235388 
torque (ref. CG): 0.099848 (roll) -1648.416768 (pitch) 0.435053 (yaw) 
----------------------------------------------------- 
step 80, time 0.064000 
bounding box of vehicle: xmin -12.2 -1.30003 -2.38524e-18, xmax 2.38524e-18 1.30003 3.60011m 
gts area: 163.422 m2 
yplus max: 67.0283, yplus min: 1.2813 
position of yplus max: -12.1045 -1.25713 0.0864816 
yplus prom: 44.2538 
forces: 2490.202165 -0.068561 -842.881321 
Drag coefficient: 0.694944 
Lateral coefficient: -0.000019 
Lift coefficient: -0.235224 
torque (ref. CG): 0.095985 (roll) -1655.293028 (pitch) 0.418222 (yaw) 
----------------------------------------------------- 
step 81, time 0.064800 
bounding box of vehicle: xmin -12.2 -1.30003 -2.38524e-18, xmax 2.38524e-18 1.30003 3.60011m 
gts area: 163.422 m2 
yplus max: 67.027, yplus min: 0.931712 
position of yplus max: -12.1045 -1.25713 0.0864816 
yplus prom: 44.2483 
forces: 2482.809862 -0.067283 -842.288597 
Drag coefficient: 0.692881 
Lateral coefficient: -0.000019 
Lift coefficient: -0.235059 
torque (ref. CG): 0.094196 (roll) -1662.026637 (pitch) 0.410427 (yaw) 
----------------------------------------------------- 
step 82, time 0.065600 
bounding box of vehicle: xmin -12.2 -1.30003 -2.38524e-18, xmax 2.38524e-18 1.30003 3.60011m 
gts area: 163.422 m2 
yplus max: 67.0258, yplus min: 1.24659 
position of yplus max: -12.1045 -1.25713 0.0864816 
yplus prom: 44.2425 
forces: 2475.492470 -0.065061 -841.686824 
Drag coefficient: 0.690839 
Lateral coefficient: -0.000018 
Lift coefficient: -0.234891 
torque (ref. CG): 0.091085 (roll) -1668.600168 (pitch) 0.396871 (yaw) 
----------------------------------------------------- 
step 83, time 0.066400 
bounding box of vehicle: xmin -12.2 -1.30003 -2.38524e-18, xmax 2.38524e-18 1.30003 3.60011m 
gts area: 163.422 m2 
yplus max: 67.0245, yplus min: 1.00866 
position of yplus max: -12.1045 -1.25713 0.0864816 
yplus prom: 44.2366 
forces: 2468.245483 -0.062809 -841.075760 
Drag coefficient: 0.688817 
Lateral coefficient: -0.000018 
Lift coefficient: -0.234720 
torque (ref. CG): 0.087933 (roll) -1675.018461 (pitch) 0.383138 (yaw) 
----------------------------------------------------- 
step 84, time 0.067200 
bounding box of vehicle: xmin -12.2 -1.30003 -2.38524e-18, xmax 2.38524e-18 1.30003 3.60011m 
gts area: 163.422 m2 
yplus max: 67.0233, yplus min: 1.21692 
position of yplus max: -12.1045 -1.25713 0.0864816 
yplus prom: 44.2304 
forces: 2461.084573 -0.061925 -840.449027 
Drag coefficient: 0.686819 
Lateral coefficient: -0.000017 
Lift coefficient: -0.234545 
torque (ref. CG): 0.086696 (roll) -1681.220666 (pitch) 0.377745 (yaw) 
----------------------------------------------------- 
step 85, time 0.068000 
bounding box of vehicle: xmin -12.2 -1.30003 -2.38524e-18, xmax 2.38524e-18 1.30003 3.60011m 
gts area: 163.422 m2 
yplus max: 67.0222, yplus min: 1.11456 
position of yplus max: -12.1045 -1.25713 0.0864816 
yplus prom: 44.224 
forces: 2453.992284 -0.059501 -839.809809 
Drag coefficient: 0.684839 
Lateral coefficient: -0.000017 
Lift coefficient: -0.234367 
torque (ref. CG): 0.083302 (roll) -1687.250635 (pitch) 0.362957 (yaw) 
----------------------------------------------------- 
step 86, time 0.068800 
bounding box of vehicle: xmin -12.2 -1.30003 -2.38524e-18, xmax 2.38524e-18 1.30003 3.60011m 
gts area: 163.422 m2 
yplus max: 67.021, yplus min: 1.19422 
position of yplus max: -12.1045 -1.25713 0.0864816 
yplus prom: 44.2175 
forces: 2446.952725 -0.057614 -839.167800 
Drag coefficient: 0.682875 
Lateral coefficient: -0.000016 
Lift coefficient: -0.234188 
torque (ref. CG): 0.080660 (roll) -1693.189763 (pitch) 0.351446 (yaw) 
----------------------------------------------------- 
step 87, time 0.069600 
bounding box of vehicle: xmin -12.2 -1.30003 -2.38524e-18, xmax 2.38524e-18 1.30003 3.60011m 
gts area: 163.422 m2 
yplus max: 67.0199, yplus min: 1.18612 
position of yplus max: -12.1045 -1.25713 0.0864816 
yplus prom: 44.2107 
forces: 2439.998819 -0.056867 -838.515637 
Drag coefficient: 0.680934 
Lateral coefficient: -0.000016 
Lift coefficient: -0.234006 
torque (ref. CG): 0.079614 (roll) -1698.947037 (pitch) 0.346889 (yaw) 
----------------------------------------------------- 
step 88, time 0.070400 
bounding box of vehicle: xmin -12.2 -1.30003 -2.38524e-18, xmax 2.38524e-18 1.30003 3.60011m 
gts area: 163.422 m2 
yplus max: 67.0188, yplus min: 1.18047 
position of yplus max: -12.1045 -1.25713 0.0864816 
yplus prom: 44.2038 
forces: 2433.112327 -0.053678 -837.850968 
Drag coefficient: 0.679012 
Lateral coefficient: -0.000015 
Lift coefficient: -0.233820 
torque (ref. CG): 0.075150 (roll) -1704.533646 (pitch) 0.327437 (yaw) 
----------------------------------------------------- 
step 89, time 0.071200 
bounding box of vehicle: xmin -12.2 -1.30003 -2.38524e-18, xmax 2.38524e-18 1.30003 3.60011m 
gts area: 163.422 m2 
yplus max: 67.0177, yplus min: 1.17748 
position of yplus max: -12.1045 -1.25713 0.0864816 
yplus prom: 44.1968 
forces: 2426.277489 -0.054050 -837.173887 
Drag coefficient: 0.677105 
Lateral coefficient: -0.000015 
Lift coefficient: -0.233631 
torque (ref. CG): 0.075670 (roll) -1709.972228 (pitch) 0.329705 (yaw) 
----------------------------------------------------- 
step 90, time 0.072000 
bounding box of vehicle: xmin -12.2 -1.30003 -2.38524e-18, xmax 2.38524e-18 1.30003 3.60011m 
gts area: 163.422 m2 
yplus max: 67.0166, yplus min: 1.17728 
position of yplus max: -12.1045 -1.25713 0.0864816 
yplus prom: 44.1895 
forces: 2419.496882 -0.051837 -836.485589 
Drag coefficient: 0.675213 
Lateral coefficient: -0.000014 
Lift coefficient: -0.233439 
torque (ref. CG): 0.072571 (roll) -1715.266459 (pitch) 0.316204 (yaw) 
----------------------------------------------------- 
step 91, time 0.072800 
bounding box of vehicle: xmin -12.2 -1.30003 -2.38524e-18, xmax 2.38524e-18 1.30003 3.60011m 
gts area: 163.422 m2 
yplus max: 67.0155, yplus min: 1.17995 
position of yplus max: -12.1045 -1.25713 0.0864816 
yplus prom: 44.1822 
forces: 2412.770164 -0.050543 -835.785625 
Drag coefficient: 0.673335 
Lateral coefficient: -0.000014 
Lift coefficient: -0.233244 
torque (ref. CG): 0.070761 (roll) -1720.414082 (pitch) 0.308315 (yaw) 
----------------------------------------------------- 
step 92, time 0.073600 
bounding box of vehicle: xmin -12.2 -1.30003 -2.38524e-18, xmax 2.38524e-18 1.30003 3.60011m 
gts area: 163.422 m2 
yplus max: 67.0145, yplus min: 1.18552 
position of yplus max: -12.1045 -1.25713 0.0864816 
yplus prom: 44.1747 
forces: 2406.105993 -0.049282 -835.067933 
Drag coefficient: 0.671476 
Lateral coefficient: -0.000014 
Lift coefficient: -0.233044 
torque (ref. CG): 0.068994 (roll) -1725.366000 (pitch) 0.300618 (yaw) 
----------------------------------------------------- 
step 93, time 0.074400 
bounding box of vehicle: xmin -12.2 -1.30003 -2.38524e-18, xmax 2.38524e-18 1.30003 3.60011m 
gts area: 163.422 m2 
yplus max: 67.0135, yplus min: 1.19393 
position of yplus max: -12.1045 -1.25713 0.0864816 
yplus prom: 44.167 
forces: 2399.505752 -0.048214 -834.334647 
Drag coefficient: 0.669634 
Lateral coefficient: -0.000013 
Lift coefficient: -0.232839 
torque (ref. CG): 0.067500 (roll) -1730.133293 (pitch) 0.294106 (yaw) 
----------------------------------------------------- 
step 94, time 0.075200 
bounding box of vehicle: xmin -12.2 -1.30003 -2.38524e-18, xmax 2.38524e-18 1.30003 3.60011m 
gts area: 163.422 m2 
yplus max: 67.0125, yplus min: 1.20509 
position of yplus max: -12.1045 -1.25713 0.0864816 
yplus prom: 44.1593 
forces: 2392.961271 -0.047207 -833.589005 
Drag coefficient: 0.667807 
Lateral coefficient: -0.000013 
Lift coefficient: -0.232631 
torque (ref. CG): 0.066090 (roll) -1734.747153 (pitch) 0.287961 (yaw) 
----------------------------------------------------- 
step 95, time 0.076000 
bounding box of vehicle: xmin -12.2 -1.30003 -2.38524e-18, xmax 2.38524e-18 1.30003 3.60011m 
gts area: 163.422 m2 
yplus max: 67.0115, yplus min: 1.21882 
position of yplus max: -12.1045 -1.25713 0.0864816 
yplus prom: 44.1514 
forces: 2386.475183 -0.046113 -832.823805 
Drag coefficient: 0.665997 
Lateral coefficient: -0.000013 
Lift coefficient: -0.232417 
torque (ref. CG): 0.064558 (roll) -1739.159957 (pitch) 0.281288 (yaw) 
----------------------------------------------------- 
step 96, time 0.076800 
bounding box of vehicle: xmin -12.2 -1.30003 -2.38524e-18, xmax 2.38524e-18 1.30003 3.60011m 
gts area: 163.422 m2 
yplus max: 67.0105, yplus min: 1.23494 
position of yplus max: -12.1045 -1.25713 0.0864816 
yplus prom: 44.1435 
forces: 2380.050586 -0.044884 -832.039104 
Drag coefficient: 0.664204 
Lateral coefficient: -0.000013 
Lift coefficient: -0.232198 
torque (ref. CG): 0.062837 (roll) -1743.367712 (pitch) 0.273790 (yaw) 
----------------------------------------------------- 
step 97, time 0.077600 
bounding box of vehicle: xmin -12.2 -1.30003 -2.38524e-18, xmax 2.38524e-18 1.30003 3.60011m 
gts area: 163.422 m2 
yplus max: 67.0096, yplus min: 1.25323 
position of yplus max: -12.1045 -1.25713 0.0864816 
yplus prom: 44.1355 
forces: 2373.703879 -0.043735 -831.239293 
Drag coefficient: 0.662433 
Lateral coefficient: -0.000012 
Lift coefficient: -0.231975 
torque (ref. CG): 0.061230 (roll) -1747.374260 (pitch) 0.266786 (yaw) 
----------------------------------------------------- 
step 98, time 0.078400 
bounding box of vehicle: xmin -12.2 -1.30003 -2.38524e-18, xmax 2.38524e-18 1.30003 3.60011m 
gts area: 163.422 m2 
yplus max: 67.0086, yplus min: 1.27345 
position of yplus max: -12.1045 -1.25713 0.0864816 
yplus prom: 44.1273 
forces: 2367.423366 -0.042818 -830.424046 
Drag coefficient: 0.660680 
Lateral coefficient: -0.000012 
Lift coefficient: -0.231748 
torque (ref. CG): 0.059945 (roll) -1751.193968 (pitch) 0.261190 (yaw) 
----------------------------------------------------- 
step 99, time 0.079200 
bounding box of vehicle: xmin -12.2 -1.30003 -2.38524e-18, xmax 2.38524e-18 1.30003 3.60011m 
gts area: 163.422 m2 
yplus max: 67.0077, yplus min: 1.29536 
position of yplus max: -12.1045 -1.25713 0.0864816 
yplus prom: 44.1191 
forces: 2361.210392 -0.042159 -829.588265 
Drag coefficient: 0.658947 
Lateral coefficient: -0.000012 
Lift coefficient: -0.231514 
torque (ref. CG): 0.059022 (roll) -1754.793866 (pitch) 0.257169 (yaw) 
----------------------------------------------------- 
step 100, time 0.080000 
bounding box of vehicle: xmin -12.2 -1.30003 -2.38524e-18, xmax 2.38524e-18 1.30003 3.60011m 
gts area: 163.422 m2 
yplus max: 67.0068, yplus min: 1.31543 
position of yplus max: -12.1045 -1.25713 0.0864816 
yplus prom: 44.1108 
forces: 2355.043974 -0.041455 -828.733388 
Drag coefficient: 0.657226 
Lateral coefficient: -0.000012 
Lift coefficient: -0.231276 
torque (ref. CG): 0.058038 (roll) -1758.212103 (pitch) 0.252878 (yaw) 
----------------------------------------------------- 
step 101, time 0.080800 
bounding box of vehicle: xmin -12.2 -1.30003 -2.38524e-18, xmax 2.38524e-18 1.30003 3.60011m 
gts area: 163.422 m2 
yplus max: 67.0059, yplus min: 1.33495 
position of yplus max: -12.1045 -1.25713 0.0864816 
yplus prom: 44.1025 
forces: 2348.928525 -0.040851 -827.859939 
Drag coefficient: 0.655519 
Lateral coefficient: -0.000011 
Lift coefficient: -0.231032 
torque (ref. CG): 0.057191 (roll) -1761.445693 (pitch) 0.249189 (yaw) 
----------------------------------------------------- 
step 102, time 0.081600 
bounding box of vehicle: xmin -12.2 -1.30003 -2.38524e-18, xmax 2.38524e-18 1.30003 3.60011m 
gts area: 163.422 m2 
yplus max: 67.005, yplus min: 1.35592 
position of yplus max: -12.1045 -1.25713 0.0864816 
yplus prom: 44.0941 
forces: 2342.870603 -0.040523 -826.971242 
Drag coefficient: 0.653828 
Lateral coefficient: -0.000011 
Lift coefficient: -0.230784 
torque (ref. CG): 0.056732 (roll) -1764.505734 (pitch) 0.247192 (yaw) 
----------------------------------------------------- 
step 103, time 0.082400 
bounding box of vehicle: xmin -12.2 -1.30003 -2.38524e-18, xmax 2.38524e-18 1.30003 3.60011m 
gts area: 163.422 m2 
yplus max: 67.0042, yplus min: 1.37817 
position of yplus max: -12.1045 -1.25713 0.0864816 
yplus prom: 44.0856 
forces: 2336.865217 -0.039893 -826.065192 
Drag coefficient: 0.652152 
Lateral coefficient: -0.000011 
Lift coefficient: -0.230531 
torque (ref. CG): 0.055851 (roll) -1767.386369 (pitch) 0.243349 (yaw) 
----------------------------------------------------- 
step 104, time 0.083200 
bounding box of vehicle: xmin -12.2 -1.30003 -2.38524e-18, xmax 2.38524e-18 1.30003 3.60011m 
gts area: 163.422 m2 
yplus max: 67.0033, yplus min: 1.40151 
position of yplus max: -12.1045 -1.25713 0.0864816 
yplus prom: 44.077 
forces: 2330.913772 -0.038683 -825.142197 
Drag coefficient: 0.650492 
Lateral coefficient: -0.000011 
Lift coefficient: -0.230274 
torque (ref. CG): 0.054156 (roll) -1770.088124 (pitch) 0.235964 (yaw) 
----------------------------------------------------- 
step 105, time 0.084000 
bounding box of vehicle: xmin -12.2 -1.30003 -2.38524e-18, xmax 2.38524e-18 1.30003 3.60011m 
gts area: 163.422 m2 
yplus max: 67.0025, yplus min: 1.4258 
position of yplus max: -12.1045 -1.25713 0.0864816 
yplus prom: 44.0684 
forces: 2325.014547 -0.039248 -824.201122 
Drag coefficient: 0.648845 
Lateral coefficient: -0.000011 
Lift coefficient: -0.230011 
torque (ref. CG): 0.054948 (roll) -1772.606479 (pitch) 0.239414 (yaw) 
----------------------------------------------------- 
step 106, time 0.084800 
bounding box of vehicle: xmin -12.2 -1.30003 -2.38524e-18, xmax 2.38524e-18 1.30003 3.60011m 
gts area: 163.422 m2 
yplus max: 67.0017, yplus min: 1.45088 
position of yplus max: -12.1045 -1.25713 0.0864816 
yplus prom: 44.0598 
forces: 2319.165432 -0.038715 -823.241231 
Drag coefficient: 0.647213 
Lateral coefficient: -0.000011 
Lift coefficient: -0.229743 
torque (ref. CG): 0.054202 (roll) -1774.939903 (pitch) 0.236164 (yaw) 
----------------------------------------------------- 
step 107, time 0.085600 
bounding box of vehicle: xmin -12.2 -1.30003 -2.38524e-18, xmax 2.38524e-18 1.30003 3.60011m 
gts area: 163.422 m2 
yplus max: 67.0008, yplus min: 1.47663 
position of yplus max: -12.1045 -1.25713 0.0864816 
yplus prom: 44.0511 
forces: 2313.370247 -0.038158 -822.261664 
Drag coefficient: 0.645596 
Lateral coefficient: -0.000011 
Lift coefficient: -0.229470 
torque (ref. CG): 0.053421 (roll) -1777.077805 (pitch) 0.232763 (yaw) 
----------------------------------------------------- 
step 108, time 0.086400 
bounding box of vehicle: xmin -12.2 -1.30003 -2.38524e-18, xmax 2.38524e-18 1.30003 3.60011m 
gts area: 163.422 m2 
yplus max: 67, yplus min: 1.50293 
position of yplus max: -12.1045 -1.25713 0.0864816 
yplus prom: 44.0423 
forces: 2307.623764 -0.038431 -821.265364 
Drag coefficient: 0.643992 
Lateral coefficient: -0.000011 
Lift coefficient: -0.229192 
torque (ref. CG): 0.053803 (roll) -1779.045451 (pitch) 0.234429 (yaw) 
----------------------------------------------------- 
step 109, time 0.087200 
bounding box of vehicle: xmin -12.2 -1.30003 -2.38524e-18, xmax 2.38524e-18 1.30003 3.60011m 
gts area: 163.422 m2 
yplus max: 66.9993, yplus min: 1.52968 
position of yplus max: -12.1045 -1.25713 0.0864816 
yplus prom: 44.0335 
forces: 2301.922857 -0.037646 -820.249751 
Drag coefficient: 0.642401 
Lateral coefficient: -0.000011 
Lift coefficient: -0.228908 
torque (ref. CG): 0.052704 (roll) -1780.831479 (pitch) 0.229638 (yaw) 
----------------------------------------------------- 
step 110, time 0.088000 
bounding box of vehicle: xmin -12.2 -1.30003 -2.38524e-18, xmax 2.38524e-18 1.30003 3.60011m 
gts area: 163.422 m2 
yplus max: 66.9985, yplus min: 1.14571 
position of yplus max: -12.1045 -1.25713 0.0864816 
yplus prom: 44.0247 
forces: 2296.263999 -0.037627 -819.215093 
Drag coefficient: 0.640822 
Lateral coefficient: -0.000011 
Lift coefficient: -0.228620 
torque (ref. CG): 0.052678 (roll) -1782.442471 (pitch) 0.229524 (yaw) 
----------------------------------------------------- 
step 111, time 0.088800 
bounding box of vehicle: xmin -12.2 -1.30003 -2.38524e-18, xmax 2.38524e-18 1.30003 3.60011m 
gts area: 163.422 m2 
yplus max: 66.9977, yplus min: 1.58417 
position of yplus max: -12.1045 -1.25713 0.0864816 
yplus prom: 44.0158 
forces: 2290.650916 -0.036814 -818.160607 
Drag coefficient: 0.639255 
Lateral coefficient: -0.000010 
Lift coefficient: -0.228325 
torque (ref. CG): 0.051539 (roll) -1783.868420 (pitch) 0.224564 (yaw) 
----------------------------------------------------- 
step 112, time 0.089600 
bounding box of vehicle: xmin -12.2 -1.30003 -2.38524e-18, xmax 2.38524e-18 1.30003 3.60011m 
gts area: 163.422 m2 
yplus max: 66.997, yplus min: 1.61176 
position of yplus max: -12.1045 -1.25713 0.0864816 
yplus prom: 44.0069 
forces: 2285.076018 -0.036712 -817.087386 
Drag coefficient: 0.637700 
Lateral coefficient: -0.000010 
Lift coefficient: -0.228026 
torque (ref. CG): 0.051396 (roll) -1785.126631 (pitch) 0.223941 (yaw) 
----------------------------------------------------- 
step 113, time 0.090400 
bounding box of vehicle: xmin -12.2 -1.30003 -2.38524e-18, xmax 2.38524e-18 1.30003 3.60011m 
gts area: 163.422 m2 
yplus max: 66.9963, yplus min: 1.6395 
position of yplus max: -12.1045 -1.25713 0.0864816 
yplus prom: 43.9979 
forces: 2279.542758 -0.036450 -815.994473 
Drag coefficient: 0.636155 
Lateral coefficient: -0.000010 
Lift coefficient: -0.227721 
torque (ref. CG): 0.051030 (roll) -1786.206423 (pitch) 0.222347 (yaw) 
----------------------------------------------------- 
step 114, time 0.091200 
bounding box of vehicle: xmin -12.2 -1.30003 -2.38524e-18, xmax 2.38524e-18 1.30003 3.60011m 
gts area: 163.422 m2 
yplus max: 66.9955, yplus min: 1.66734 
position of yplus max: -12.1045 -1.25713 0.0864816 
yplus prom: 43.9889 
forces: 2274.047677 -0.036102 -814.880397 
Drag coefficient: 0.634622 
Lateral coefficient: -0.000010 
Lift coefficient: -0.227410 
torque (ref. CG): 0.050542 (roll) -1787.103673 (pitch) 0.220220 (yaw) 
----------------------------------------------------- 
step 115, time 0.092000 
bounding box of vehicle: xmin -12.2 -1.30003 -2.38524e-18, xmax 2.38524e-18 1.30003 3.60011m 
gts area: 163.422 m2 
yplus max: 66.9948, yplus min: 1.69523 
position of yplus max: -12.1045 -1.25713 0.0864816 
yplus prom: 43.9799 
forces: 2268.593663 -0.036291 -813.740902 
Drag coefficient: 0.633100 
Lateral coefficient: -0.000010 
Lift coefficient: -0.227092 
torque (ref. CG): 0.050807 (roll) -1787.788375 (pitch) 0.221373 (yaw) 
----------------------------------------------------- 
step 116, time 0.092800 
bounding box of vehicle: xmin -12.2 -1.30003 -2.38524e-18, xmax 2.38524e-18 1.30003 3.60011m 
gts area: 163.422 m2 
yplus max: 66.9941, yplus min: 1.70611 
position of yplus max: -12.1045 -1.25713 0.0864816 
yplus prom: 43.9708 
forces: 2263.183438 -0.036084 -812.579396 
Drag coefficient: 0.631590 
Lateral coefficient: -0.000010 
Lift coefficient: -0.226768 
torque (ref. CG): 0.050518 (roll) -1788.277504 (pitch) 0.220114 (yaw) 
----------------------------------------------------- 
step 117, time 0.093600 
bounding box of vehicle: xmin -12.2 -1.30003 -2.38524e-18, xmax 2.38524e-18 1.30003 3.60011m 
gts area: 163.422 m2 
yplus max: 66.9934, yplus min: 1.71119 
position of yplus max: -12.1045 -1.25713 0.0864816 
yplus prom: 43.9617 
forces: 2257.810743 -0.035566 -811.396990 
Drag coefficient: 0.630091 
Lateral coefficient: -0.000010 
Lift coefficient: -0.226438 
torque (ref. CG): 0.049793 (roll) -1788.586599 (pitch) 0.216955 (yaw) 
----------------------------------------------------- 
step 118, time 0.094400 
bounding box of vehicle: xmin -12.2 -1.30003 -2.38524e-18, xmax 2.38524e-18 1.30003 3.60011m 
gts area: 163.422 m2 
yplus max: 66.9927, yplus min: 1.72128 
position of yplus max: -12.1045 -1.25713 0.0864816 
yplus prom: 43.9525 
forces: 2252.469980 -0.035705 -810.192941 
Drag coefficient: 0.628600 
Lateral coefficient: -0.000010 
Lift coefficient: -0.226102 
torque (ref. CG): 0.049987 (roll) -1788.718970 (pitch) 0.217802 (yaw) 
----------------------------------------------------- 
step 119, time 0.095200 
bounding box of vehicle: xmin -12.2 -1.30003 -2.38524e-18, xmax 2.38524e-18 1.30003 3.60011m 
gts area: 163.422 m2 
yplus max: 66.9921, yplus min: 1.73619 
position of yplus max: -12.1045 -1.25713 0.0864816 
yplus prom: 43.9434 
forces: 2247.158555 -0.035715 -808.970711 
Drag coefficient: 0.627118 
Lateral coefficient: -0.000010 
Lift coefficient: -0.225761 
torque (ref. CG): 0.050001 (roll) -1788.699358 (pitch) 0.217861 (yaw) 
----------------------------------------------------- 
step 120, time 0.096000 
bounding box of vehicle: xmin -12.2 -1.30003 -2.38524e-18, xmax 2.38524e-18 1.30003 3.60011m 
gts area: 163.422 m2 
yplus max: 66.9914, yplus min: 1.75342 
position of yplus max: -12.1045 -1.25713 0.0864816 
yplus prom: 43.9342 
forces: 2241.877042 -0.035073 -807.726632 
Drag coefficient: 0.625644 
Lateral coefficient: -0.000010 
Lift coefficient: -0.225413 
torque (ref. CG): 0.049103 (roll) -1788.504596 (pitch) 0.213947 (yaw) 
----------------------------------------------------- 
step 121, time 0.096800 
bounding box of vehicle: xmin -12.2 -1.30003 -2.38524e-18, xmax 2.38524e-18 1.30003 3.60011m 
gts area: 163.422 m2 
yplus max: 66.9908, yplus min: 1.77136 
position of yplus max: -12.1045 -1.25713 0.0864816 
yplus prom: 43.9249 
forces: 2236.628369 -0.035060 -806.466274 
Drag coefficient: 0.624179 
Lateral coefficient: -0.000010 
Lift coefficient: -0.225062 
torque (ref. CG): 0.049084 (roll) -1788.164555 (pitch) 0.213867 (yaw) 
----------------------------------------------------- 
step 122, time 0.097600 
bounding box of vehicle: xmin -12.2 -1.30003 -2.38524e-18, xmax 2.38524e-18 1.30003 3.60011m 
gts area: 163.422 m2 
yplus max: 66.9901, yplus min: 1.79342 
position of yplus max: -12.1045 -1.25713 0.0864816 
yplus prom: 43.9157 
forces: 2231.406667 -0.034388 -805.189630 
Drag coefficient: 0.622722 
Lateral coefficient: -0.000010 
Lift coefficient: -0.224705 
torque (ref. CG): 0.048144 (roll) -1787.687408 (pitch) 0.209769 (yaw) 
----------------------------------------------------- 
step 123, time 0.098400 
bounding box of vehicle: xmin -12.2 -1.30003 -2.38524e-18, xmax 2.38524e-18 1.30003 3.60011m 
gts area: 163.422 m2 
yplus max: 66.9895, yplus min: 1.81921 
position of yplus max: -12.1045 -1.25713 0.0864816 
yplus prom: 43.9064 
forces: 2226.215512 -0.034482 -803.895731 
Drag coefficient: 0.621273 
Lateral coefficient: -0.000010 
Lift coefficient: -0.224344 
torque (ref. CG): 0.048275 (roll) -1787.062245 (pitch) 0.210339 (yaw) 
----------------------------------------------------- 
step 124, time 0.099200 
bounding box of vehicle: xmin -12.2 -1.30003 -2.38524e-18, xmax 2.38524e-18 1.30003 3.60011m 
gts area: 163.422 m2 
yplus max: 66.9889, yplus min: 1.84832 
position of yplus max: -12.1045 -1.25713 0.0864816 
yplus prom: 43.897 
forces: 2221.052541 -0.034099 -802.584308 
Drag coefficient: 0.619832 
Lateral coefficient: -0.000010 
Lift coefficient: -0.223978 
torque (ref. CG): 0.047739 (roll) -1786.290721 (pitch) 0.208006 (yaw) 
----------------------------------------------------- 
step 125, time 0.100000 
bounding box of vehicle: xmin -12.2 -1.30003 -2.38524e-18, xmax 2.38524e-18 1.30003 3.60011m 
gts area: 163.422 m2 
yplus max: 66.9883, yplus min: 1.68961 
position of yplus max: -12.1045 -1.25713 0.0864816 
yplus prom: 43.8877 
forces: 2215.918930 -0.033098 -801.257831 
Drag coefficient: 0.618400 
Lateral coefficient: -0.000009 
Lift coefficient: -0.223608 
torque (ref. CG): 0.046337 (roll) -1785.386268 (pitch) 0.201899 (yaw) 
----------------------------------------------------- 
step 126, time 0.100800 
bounding box of vehicle: xmin -12.2 -1.30003 -2.38524e-18, xmax 2.38524e-18 1.30003 3.60011m 
gts area: 163.422 m2 
yplus max: 66.9877, yplus min: 1.91164 
position of yplus max: -12.1045 -1.25713 0.0864816 
yplus prom: 43.8783 
forces: 2210.811645 -0.032581 -799.916107 
Drag coefficient: 0.616975 
Lateral coefficient: -0.000009 
Lift coefficient: -0.223234 
torque (ref. CG): 0.045613 (roll) -1784.351951 (pitch) 0.198744 (yaw) 
----------------------------------------------------- 
step 127, time 0.101600 
bounding box of vehicle: xmin -12.2 -1.30003 -2.38524e-18, xmax 2.38524e-18 1.30003 3.60011m 
gts area: 163.422 m2 
yplus max: 66.9871, yplus min: 1.95136 
position of yplus max: -12.1045 -1.25713 0.0864816 
yplus prom: 43.8689 
forces: 2205.728864 -0.031598 -798.560136 
Drag coefficient: 0.615556 
Lateral coefficient: -0.000009 
Lift coefficient: -0.222855 
torque (ref. CG): 0.044238 (roll) -1783.196421 (pitch) 0.192750 (yaw) 
----------------------------------------------------- 
step 128, time 0.102400 
bounding box of vehicle: xmin -12.2 -1.30003 -2.38524e-18, xmax 2.38524e-18 1.30003 3.60011m 
gts area: 163.422 m2 
yplus max: 66.9865, yplus min: 1.98963 
position of yplus max: -12.1045 -1.25713 0.0864816 
yplus prom: 43.8595 
forces: 2200.666047 -0.031215 -797.190138 
Drag coefficient: 0.614143 
Lateral coefficient: -0.000009 
Lift coefficient: -0.222473 
torque (ref. CG): 0.043701 (roll) -1781.927375 (pitch) 0.190410 (yaw) 
----------------------------------------------------- 
step 129, time 0.103200 
bounding box of vehicle: xmin -12.2 -1.30003 -2.38524e-18, xmax 2.38524e-18 1.30003 3.60011m 
gts area: 163.422 m2 
yplus max: 66.9859, yplus min: 2.02929 
position of yplus max: -12.1045 -1.25713 0.0864816 
yplus prom: 43.8501 
forces: 2195.627858 -0.029835 -795.807640 
Drag coefficient: 0.612737 
Lateral coefficient: -0.000008 
Lift coefficient: -0.222087 
torque (ref. CG): 0.041769 (roll) -1780.547602 (pitch) 0.181994 (yaw) 
----------------------------------------------------- 
step 130, time 0.104000 
bounding box of vehicle: xmin -12.2 -1.30003 -2.38524e-18, xmax 2.38524e-18 1.30003 3.60011m 
gts area: 163.422 m2 
yplus max: 66.9853, yplus min: 2.01488 
position of yplus max: -12.1045 -1.25713 0.0864816 
yplus prom: 43.8406 
forces: 2190.612065 -0.029396 -794.411359 
Drag coefficient: 0.611337 
Lateral coefficient: -0.000008 
Lift coefficient: -0.221698 
torque (ref. CG): 0.041154 (roll) -1779.052397 (pitch) 0.179315 (yaw) 
----------------------------------------------------- 
step 131, time 0.104800 
bounding box of vehicle: xmin -12.2 -1.30003 -2.38524e-18, xmax 2.38524e-18 1.30003 3.60011m 
gts area: 163.422 m2 
yplus max: 66.9848, yplus min: 2.10879 
position of yplus max: -12.1045 -1.25713 0.0864816 
yplus prom: 43.8311 
forces: 2185.617577 -0.028915 -793.002568 
Drag coefficient: 0.609944 
Lateral coefficient: -0.000008 
Lift coefficient: -0.221304 
torque (ref. CG): 0.040481 (roll) -1777.451056 (pitch) 0.176382 (yaw) 
----------------------------------------------------- 
step 132, time 0.105600 
bounding box of vehicle: xmin -12.2 -1.30003 -2.38524e-18, xmax 2.38524e-18 1.30003 3.60011m 
gts area: 163.422 m2 
yplus max: 66.9842, yplus min: 2.01298 
position of yplus max: -12.1045 -1.25713 0.0864816 
yplus prom: 43.8217 
forces: 2180.643762 -0.028530 -791.582187 
Drag coefficient: 0.608556 
Lateral coefficient: -0.000008 
Lift coefficient: -0.220908 
torque (ref. CG): 0.039941 (roll) -1775.750075 (pitch) 0.174031 (yaw) 
----------------------------------------------------- 
step 133, time 0.106400 
bounding box of vehicle: xmin -12.2 -1.30003 -2.38524e-18, xmax 2.38524e-18 1.30003 3.60011m 
gts area: 163.422 m2 
yplus max: 66.9837, yplus min: 2.1305 
position of yplus max: -12.1045 -1.25713 0.0864816 
yplus prom: 43.8122 
forces: 2175.687254 -0.028285 -790.149599 
Drag coefficient: 0.607172 
Lateral coefficient: -0.000008 
Lift coefficient: -0.220508 
torque (ref. CG): 0.039598 (roll) -1773.950397 (pitch) 0.172536 (yaw) 
----------------------------------------------------- 
step 134, time 0.107200 
bounding box of vehicle: xmin -12.2 -1.30003 -2.38524e-18, xmax 2.38524e-18 1.30003 3.60011m 
gts area: 163.422 m2 
yplus max: 66.9832, yplus min: 2.08002 
position of yplus max: -12.1045 -1.25713 0.0864816 
yplus prom: 43.8027 
forces: 2170.752101 -0.027400 -788.704486 
Drag coefficient: 0.605795 
Lateral coefficient: -0.000008 
Lift coefficient: -0.220105 
torque (ref. CG): 0.038360 (roll) -1772.044422 (pitch) 0.167140 (yaw) 
----------------------------------------------------- 
step 135, time 0.108000 
bounding box of vehicle: xmin -12.2 -1.30003 -2.38524e-18, xmax 2.38524e-18 1.30003 3.60011m 
gts area: 163.422 m2 
yplus max: 66.9826, yplus min: 2.05303 
position of yplus max: -12.1045 -1.25713 0.0864816 
yplus prom: 43.7932 
forces: 2165.833948 -0.027535 -787.247287 
Drag coefficient: 0.604423 
Lateral coefficient: -0.000008 
Lift coefficient: -0.219698 
torque (ref. CG): 0.038549 (roll) -1770.040926 (pitch) 0.167963 (yaw) 
----------------------------------------------------- 
step 136, time 0.108800 
bounding box of vehicle: xmin -12.2 -1.30003 -2.38524e-18, xmax 2.38524e-18 1.30003 3.60011m 
gts area: 163.422 m2 
yplus max: 66.9821, yplus min: 2.22189 
position of yplus max: -12.1045 -1.25713 0.0864816 
yplus prom: 43.7837 
forces: 2160.934040 -0.026695 -785.778674 
Drag coefficient: 0.603055 
Lateral coefficient: -0.000007 
Lift coefficient: -0.219288 
torque (ref. CG): 0.037373 (roll) -1767.942257 (pitch) 0.162838 (yaw) 
----------------------------------------------------- 
step 137, time 0.109600 
bounding box of vehicle: xmin -12.2 -1.30003 -2.38524e-18, xmax 2.38524e-18 1.30003 3.60011m 
gts area: 163.422 m2 
yplus max: 66.9816, yplus min: 2.0682 
position of yplus max: -12.1045 -1.25713 0.0864816 
yplus prom: 43.7742 
forces: 2156.048305 -0.026216 -784.299613 
Drag coefficient: 0.601692 
Lateral coefficient: -0.000007 
Lift coefficient: -0.218876 
torque (ref. CG): 0.036702 (roll) -1765.760016 (pitch) 0.159918 (yaw) 
----------------------------------------------------- 
step 138, time 0.110400 
bounding box of vehicle: xmin -12.2 -1.30003 -2.38524e-18, xmax 2.38524e-18 1.30003 3.60011m 
gts area: 163.422 m2 
yplus max: 66.9811, yplus min: 2.10122 
position of yplus max: -12.1045 -1.25713 0.0864816 
yplus prom: 43.7646 
forces: 2151.183493 -0.025693 -782.810486 
Drag coefficient: 0.600334 
Lateral coefficient: -0.000007 
Lift coefficient: -0.218460 
torque (ref. CG): 0.035970 (roll) -1763.487071 (pitch) 0.156728 (yaw) 
----------------------------------------------------- 
step 139, time 0.111200 
bounding box of vehicle: xmin -12.2 -1.30003 -2.38524e-18, xmax 2.38524e-18 1.30003 3.60011m 
gts area: 163.422 m2 
yplus max: 66.9806, yplus min: 2.18661 
position of yplus max: -12.1045 -1.25713 0.0864816 
yplus prom: 43.7551 
forces: 2146.335187 -0.024908 -781.310316 
Drag coefficient: 0.598981 
Lateral coefficient: -0.000007 
Lift coefficient: -0.218041 
torque (ref. CG): 0.034871 (roll) -1761.123667 (pitch) 0.151937 (yaw) 
----------------------------------------------------- 
step 140, time 0.112000 
bounding box of vehicle: xmin -12.2 -1.30003 -2.38524e-18, xmax 2.38524e-18 1.30003 3.60011m 
gts area: 163.422 m2 
yplus max: 66.9801, yplus min: 2.07859 
position of yplus max: -12.1045 -1.25713 0.0864816 
yplus prom: 43.7456 
forces: 2141.500397 -0.024619 -779.799175 
Drag coefficient: 0.597632 
Lateral coefficient: -0.000007 
Lift coefficient: -0.217620 
torque (ref. CG): 0.034467 (roll) -1758.674412 (pitch) 0.150178 (yaw) 
----------------------------------------------------- 
step 141, time 0.112800 
bounding box of vehicle: xmin -12.2 -1.30003 -2.38524e-18, xmax 2.38524e-18 1.30003 3.60011m 
gts area: 163.422 m2 
yplus max: 66.9797, yplus min: 2.1228 
position of yplus max: -12.1045 -1.25713 0.0864816 
yplus prom: 43.7361 
forces: 2136.680326 -0.024071 -778.279608 
Drag coefficient: 0.596287 
Lateral coefficient: -0.000007 
Lift coefficient: -0.217196 
torque (ref. CG): 0.033700 (roll) -1756.153150 (pitch) 0.146834 (yaw) 
----------------------------------------------------- 
step 142, time 0.113600 
bounding box of vehicle: xmin -12.2 -1.30003 -2.38524e-18, xmax 2.38524e-18 1.30003 3.60011m 
gts area: 163.422 m2 
yplus max: 66.9792, yplus min: 2.19612 
position of yplus max: -12.1045 -1.25713 0.0864816 
yplus prom: 43.7266 
forces: 2131.879356 -0.023990 -776.748643 
Drag coefficient: 0.594947 
Lateral coefficient: -0.000007 
Lift coefficient: -0.216768 
torque (ref. CG): 0.033586 (roll) -1753.535623 (pitch) 0.146341 (yaw) 
----------------------------------------------------- 
step 143, time 0.114400 
bounding box of vehicle: xmin -12.2 -1.30003 -2.38524e-18, xmax 2.38524e-18 1.30003 3.60011m 
gts area: 163.422 m2 
yplus max: 66.9787, yplus min: 2.09972 
position of yplus max: -12.1045 -1.25713 0.0864816 
yplus prom: 43.7171 
forces: 2127.091544 -0.023350 -775.210893 
Drag coefficient: 0.593611 
Lateral coefficient: -0.000007 
Lift coefficient: -0.216339 
torque (ref. CG): 0.032690 (roll) -1750.858285 (pitch) 0.142435 (yaw) 
----------------------------------------------------- 
step 144, time 0.115200 
bounding box of vehicle: xmin -12.2 -1.30003 -2.38524e-18, xmax 2.38524e-18 1.30003 3.60011m 
gts area: 163.422 m2 
yplus max: 66.9783, yplus min: 2.11814 
position of yplus max: -12.1045 -1.25713 0.0864816 
yplus prom: 43.7076 
forces: 2122.315629 -0.023568 -773.665965 
Drag coefficient: 0.592278 
Lateral coefficient: -0.000007 
Lift coefficient: -0.215908 
torque (ref. CG): 0.032995 (roll) -1748.120504 (pitch) 0.143764 (yaw) 
----------------------------------------------------- 
step 145, time 0.116000 
bounding box of vehicle: xmin -12.2 -1.30003 -2.38524e-18, xmax 2.38524e-18 1.30003 3.60011m 
gts area: 163.422 m2 
yplus max: 66.9778, yplus min: 2.22553 
position of yplus max: -12.1045 -1.25713 0.0864816 
yplus prom: 43.698 
forces: 2117.547750 -0.023160 -772.112644 
Drag coefficient: 0.590947 
Lateral coefficient: -0.000006 
Lift coefficient: -0.215475 
torque (ref. CG): 0.032425 (roll) -1745.320279 (pitch) 0.141279 (yaw) 
----------------------------------------------------- 
step 146, time 0.116800 
bounding box of vehicle: xmin -12.2 -1.30003 -2.38524e-18, xmax 2.38524e-18 1.30003 3.60011m 
gts area: 163.422 m2 
yplus max: 66.9774, yplus min: 2.13304 
position of yplus max: -12.1045 -1.25713 0.0864816 
yplus prom: 43.6885 
forces: 2112.790251 -0.023031 -770.552418 
Drag coefficient: 0.589620 
Lateral coefficient: -0.000006 
Lift coefficient: -0.215039 
torque (ref. CG): 0.032244 (roll) -1742.463399 (pitch) 0.140490 (yaw) 
----------------------------------------------------- 
step 147, time 0.117600 
bounding box of vehicle: xmin -12.2 -1.30003 -2.38524e-18, xmax 2.38524e-18 1.30003 3.60011m 
gts area: 163.422 m2 
yplus max: 66.9769, yplus min: 2.11025 
position of yplus max: -12.1045 -1.25713 0.0864816 
yplus prom: 43.6789 
forces: 2108.045263 -0.022959 -768.986689 
Drag coefficient: 0.588295 
Lateral coefficient: -0.000006 
Lift coefficient: -0.214602 
torque (ref. CG): 0.032142 (roll) -1739.555436 (pitch) 0.140048 (yaw) 
----------------------------------------------------- 
step 148, time 0.118400 
bounding box of vehicle: xmin -12.2 -1.30003 -2.38524e-18, xmax 2.38524e-18 1.30003 3.60011m 
gts area: 163.422 m2 
yplus max: 66.9765, yplus min: 2.16609 
position of yplus max: -12.1045 -1.25713 0.0864816 
yplus prom: 43.6693 
forces: 2103.311037 -0.022760 -767.415372 
Drag coefficient: 0.586974 
Lateral coefficient: -0.000006 
Lift coefficient: -0.214164 
torque (ref. CG): 0.031865 (roll) -1736.598318 (pitch) 0.138838 (yaw) 
----------------------------------------------------- 
step 149, time 0.119200 
bounding box of vehicle: xmin -12.2 -1.30003 -2.38524e-18, xmax 2.38524e-18 1.30003 3.60011m 
gts area: 163.422 m2 
yplus max: 66.9761, yplus min: 2.19653 
position of yplus max: -12.1045 -1.25713 0.0864816 
yplus prom: 43.6597 
forces: 2098.587283 -0.022660 -765.837502 
Drag coefficient: 0.585656 
Lateral coefficient: -0.000006 
Lift coefficient: -0.213723 
torque (ref. CG): 0.031724 (roll) -1733.586567 (pitch) 0.138227 (yaw) 
----------------------------------------------------- 
step 150, time 0.120000 
bounding box of vehicle: xmin -12.2 -1.30003 -2.38524e-18, xmax 2.38524e-18 1.30003 3.60011m 
gts area: 163.422 m2 
yplus max: 66.9757, yplus min: 1.90397 
position of yplus max: -12.1045 -1.25713 0.0864816 
yplus prom: 43.6501 
forces: 2093.873276 -0.022691 -764.254748 
Drag coefficient: 0.584340 
Lateral coefficient: -0.000006 
Lift coefficient: -0.213282 
torque (ref. CG): 0.031768 (roll) -1730.531376 (pitch) 0.138418 (yaw) 
----------------------------------------------------- 
step 151, time 0.120800 
bounding box of vehicle: xmin -12.2 -1.30003 -2.38524e-18, xmax 2.38524e-18 1.30003 3.60011m 
gts area: 163.422 m2 
yplus max: 66.9753, yplus min: 1.67221 
position of yplus max: -12.1045 -1.25713 0.0864816 
yplus prom: 43.6405 
forces: 2089.168120 -0.022563 -762.665280 
Drag coefficient: 0.583027 
Lateral coefficient: -0.000006 
Lift coefficient: -0.212838 
torque (ref. CG): 0.031588 (roll) -1727.422840 (pitch) 0.137635 (yaw) 
----------------------------------------------------- 
step 152, time 0.121600 
bounding box of vehicle: xmin -12.2 -1.30003 -2.38524e-18, xmax 2.38524e-18 1.30003 3.60011m 
gts area: 163.422 m2 
yplus max: 66.9749, yplus min: 1.63828 
position of yplus max: -12.1045 -1.25713 0.0864816 
yplus prom: 43.6309 
forces: 2084.475834 -0.022130 -761.073981 
Drag coefficient: 0.581718 
Lateral coefficient: -0.000006 
Lift coefficient: -0.212394 
torque (ref. CG): 0.030982 (roll) -1724.285118 (pitch) 0.134993 (yaw) 
----------------------------------------------------- 
step 153, time 0.122400 
bounding box of vehicle: xmin -12.2 -1.30003 -2.38524e-18, xmax 2.38524e-18 1.30003 3.60011m 
gts area: 163.422 m2 
yplus max: 66.9745, yplus min: 1.10467 
position of yplus max: -12.1045 -1.25713 0.0864816 
yplus prom: 43.6212 
forces: 2079.793670 -0.022119 -759.481171 
Drag coefficient: 0.580411 
Lateral coefficient: -0.000006 
Lift coefficient: -0.211950 
torque (ref. CG): 0.030966 (roll) -1721.124006 (pitch) 0.134924 (yaw) 
----------------------------------------------------- 
step 154, time 0.123200 
bounding box of vehicle: xmin -12.2 -1.30003 -2.38524e-18, xmax 2.38524e-18 1.30003 3.60011m 
gts area: 163.422 m2 
yplus max: 66.9741, yplus min: 2.02817 
position of yplus max: -12.1045 -1.25713 0.0864816 
yplus prom: 43.6116 
forces: 2075.117301 -0.022366 -757.883823 
Drag coefficient: 0.579106 
Lateral coefficient: -0.000006 
Lift coefficient: -0.211504 
[...]
gts area: 163.422 m2 
yplus max: 66.771, yplus min: 2.15705 
position of yplus max: -12.1045 -1.25713 0.0864816 
yplus prom: 40.3509 
forces: 1085.328782 -0.024950 -570.839620 
Drag coefficient: 0.302884 
Lateral coefficient: -0.000007 
Lift coefficient: -0.159305 
torque (ref. CG): 0.034931 (roll) -1962.661386 (pitch) 0.152198 (yaw) 
----------------------------------------------------- 
step 7963, time 6.370400 
bounding box of vehicle: xmin -12.2 -1.30003 -2.38524e-18, xmax 2.38524e-18 1.30003 3.60011m 
gts area: 163.422 m2 
yplus max: 66.771, yplus min: 2.15705 
position of yplus max: -12.1045 -1.25713 0.0864816 
yplus prom: 40.3509 
forces: 1085.328782 -0.024950 -570.839620 
Drag coefficient: 0.302884 
Lateral coefficient: -0.000007 
Lift coefficient: -0.159305 
torque (ref. CG): 0.034930 (roll) -1962.661387 (pitch) 0.152197 (yaw) 
----------------------------------------------------- 
step 7964, time 6.371200 
bounding box of vehicle: xmin -12.2 -1.30003 -2.38524e-18, xmax 2.38524e-18 1.30003 3.60011m 
gts area: 163.422 m2 
yplus max: 66.771, yplus min: 2.15705 
position of yplus max: -12.1045 -1.25713 0.0864816 
yplus prom: 40.3509 
forces: 1085.313320 -0.022881 -570.858875 
Drag coefficient: 0.302880 
Lateral coefficient: -0.000006 
Lift coefficient: -0.159310 
torque (ref. CG): 0.032033 (roll) -1962.800491 (pitch) 0.139574 (yaw) 
----------------------------------------------------- 
step 7965, time 6.372000 
bounding box of vehicle: xmin -12.2 -1.30003 -2.38524e-18, xmax 2.38524e-18 1.30003 3.60011m 
gts area: 163.422 m2 
yplus max: 66.771, yplus min: 2.15705 
position of yplus max: -12.1045 -1.25713 0.0864816 
yplus prom: 40.3509 
forces: 1085.313320 -0.022881 -570.858876 
Drag coefficient: 0.302880 
Lateral coefficient: -0.000006 
Lift coefficient: -0.159310 
torque (ref. CG): 0.032033 (roll) -1962.800494 (pitch) 0.139572 (yaw) 
----------------------------------------------------- 
step 7966, time 6.372800 
bounding box of vehicle: xmin -12.2 -1.30003 -2.38524e-18, xmax 2.38524e-18 1.30003 3.60011m 
gts area: 163.422 m2 
yplus max: 66.771, yplus min: 2.15705 
position of yplus max: -12.1045 -1.25713 0.0864816 
yplus prom: 40.3509 
forces: 1085.312649 -0.036390 -570.869545 
Drag coefficient: 0.302880 
Lateral coefficient: -0.000010 
Lift coefficient: -0.159313 
torque (ref. CG): 0.050947 (roll) -1962.866517 (pitch) 0.221981 (yaw) 
----------------------------------------------------- 
step 7967, time 6.373600 
bounding box of vehicle: xmin -12.2 -1.30003 -2.38524e-18, xmax 2.38524e-18 1.30003 3.60011m 
gts area: 163.422 m2 
yplus max: 66.771, yplus min: 2.15704 
position of yplus max: -12.1045 -1.25713 0.0864816 
yplus prom: 40.3509 
forces: 1085.312649 -0.036390 -570.869545 
Drag coefficient: 0.302880 
Lateral coefficient: -0.000010 
Lift coefficient: -0.159313 
torque (ref. CG): 0.050946 (roll) -1962.866514 (pitch) 0.221980 (yaw) 
----------------------------------------------------- 
step 7968, time 6.374400 
bounding box of vehicle: xmin -12.2 -1.30003 -2.38524e-18, xmax 2.38524e-18 1.30003 3.60011m 
gts area: 163.422 m2 
yplus max: 66.771, yplus min: 2.15705 
position of yplus max: -12.1045 -1.25713 0.0864816 
yplus prom: 40.3509 
forces: 1085.318349 -0.023080 -570.842169 
Drag coefficient: 0.302881 
Lateral coefficient: -0.000006 
Lift coefficient: -0.159306 
torque (ref. CG): 0.032312 (roll) -1962.691545 (pitch) 0.140788 (yaw) 
----------------------------------------------------- 
step 7969, time 6.375200 
bounding box of vehicle: xmin -12.2 -1.30003 -2.38524e-18, xmax 2.38524e-18 1.30003 3.60011m 
gts area: 163.422 m2 
yplus max: 66.771, yplus min: 2.15705 
position of yplus max: -12.1045 -1.25713 0.0864816 
yplus prom: 40.3509 
forces: 1085.322301 -0.021396 -570.849608 
Drag coefficient: 0.302883 
Lateral coefficient: -0.000006 
Lift coefficient: -0.159308 
torque (ref. CG): 0.029954 (roll) -1962.731390 (pitch) 0.130513 (yaw) 
----------------------------------------------------- 
step 7970, time 6.376000 
bounding box of vehicle: xmin -12.2 -1.30003 -2.38524e-18, xmax 2.38524e-18 1.30003 3.60011m 
gts area: 163.422 m2 
yplus max: 66.771, yplus min: 2.15705 
position of yplus max: -12.1045 -1.25713 0.0864816 
yplus prom: 40.3509 
forces: 1085.322272 -0.021249 -570.850840 
Drag coefficient: 0.302883 
Lateral coefficient: -0.000006 
Lift coefficient: -0.159308 
torque (ref. CG): 0.029749 (roll) -1962.738942 (pitch) 0.129619 (yaw) 
----------------------------------------------------- 
step 7971, time 6.376800 
bounding box of vehicle: xmin -12.2 -1.30003 -2.38524e-18, xmax 2.38524e-18 1.30003 3.60011m 
gts area: 163.422 m2 
yplus max: 66.771, yplus min: 2.15705 
position of yplus max: -12.1045 -1.25713 0.0864816 
yplus prom: 40.3509 
forces: 1085.321123 -0.022721 -570.851992 
Drag coefficient: 0.302882 
Lateral coefficient: -0.000006 
Lift coefficient: -0.159309 
torque (ref. CG): 0.031809 (roll) -1962.747582 (pitch) 0.138596 (yaw) 
----------------------------------------------------- 
step 7972, time 6.377600 
bounding box of vehicle: xmin -12.2 -1.30003 -2.38524e-18, xmax 2.38524e-18 1.30003 3.60011m 
gts area: 163.422 m2 
yplus max: 66.771, yplus min: 2.15705 
position of yplus max: -12.1045 -1.25713 0.0864816 
yplus prom: 40.3509 
forces: 1085.319811 -0.024328 -570.853252 
Drag coefficient: 0.302882 
Lateral coefficient: -0.000007 
Lift coefficient: -0.159309 
torque (ref. CG): 0.034059 (roll) -1962.757104 (pitch) 0.148398 (yaw) 
----------------------------------------------------- 
step 7973, time 6.378400 
bounding box of vehicle: xmin -12.2 -1.30003 -2.38524e-18, xmax 2.38524e-18 1.30003 3.60011m 
gts area: 163.422 m2 
yplus max: 66.771, yplus min: 2.15705 
position of yplus max: -12.1045 -1.25713 0.0864816 
yplus prom: 40.3509 
forces: 1085.318460 -0.025142 -570.855370 
Drag coefficient: 0.302881 
Lateral coefficient: -0.000007 
Lift coefficient: -0.159309 
torque (ref. CG): 0.035199 (roll) -1962.771914 (pitch) 0.153369 (yaw) 
----------------------------------------------------- 
step 7974, time 6.379200 
bounding box of vehicle: xmin -12.2 -1.30003 -2.38524e-18, xmax 2.38524e-18 1.30003 3.60011m 
gts area: 163.422 m2 
yplus max: 66.771, yplus min: 2.15705 
position of yplus max: -12.1045 -1.25713 0.0864816 
yplus prom: 40.3509 
forces: 1085.317421 -0.025541 -570.856401 
Drag coefficient: 0.302881 
Lateral coefficient: -0.000007 
Lift coefficient: -0.159310 
torque (ref. CG): 0.035757 (roll) -1962.779656 (pitch) 0.155798 (yaw) 
----------------------------------------------------- 
step 7975, time 6.380000 
bounding box of vehicle: xmin -12.2 -1.30003 -2.38524e-18, xmax 2.38524e-18 1.30003 3.60011m 
gts area: 163.422 m2 
yplus max: 66.771, yplus min: 2.15705 
position of yplus max: -12.1045 -1.25713 0.0864816 
yplus prom: 40.3509 
forces: 1085.316765 -0.025661 -570.856308 
Drag coefficient: 0.302881 
Lateral coefficient: -0.000007 
Lift coefficient: -0.159310 
torque (ref. CG): 0.035925 (roll) -1962.780010 (pitch) 0.156530 (yaw) 
----------------------------------------------------- 
step 7976, time 6.380800 
bounding box of vehicle: xmin -12.2 -1.30003 -2.38524e-18, xmax 2.38524e-18 1.30003 3.60011m 
gts area: 163.422 m2 
yplus max: 66.771, yplus min: 2.15705 
position of yplus max: -12.1045 -1.25713 0.0864816 
yplus prom: 40.3509 
forces: 1085.316658 -0.025235 -570.856111 
Drag coefficient: 0.302881 
Lateral coefficient: -0.000007 
Lift coefficient: -0.159310 
torque (ref. CG): 0.035329 (roll) -1962.778959 (pitch) 0.153935 (yaw) 
----------------------------------------------------- 
step 7977, time 6.381600 
bounding box of vehicle: xmin -12.2 -1.30003 -2.38524e-18, xmax 2.38524e-18 1.30003 3.60011m 
gts area: 163.422 m2 
yplus max: 66.771, yplus min: 2.15705 
position of yplus max: -12.1045 -1.25713 0.0864816 
yplus prom: 40.3509 
forces: 1085.316554 -0.024951 -570.853225 
Drag coefficient: 0.302881 
Lateral coefficient: -0.000007 
Lift coefficient: -0.159309 
torque (ref. CG): 0.034931 (roll) -1962.761497 (pitch) 0.152199 (yaw) 
----------------------------------------------------- 
step 7978, time 6.382400 
bounding box of vehicle: xmin -12.2 -1.30003 -2.38524e-18, xmax 2.38524e-18 1.30003 3.60011m 
gts area: 163.422 m2 
yplus max: 66.771, yplus min: 2.15705 
position of yplus max: -12.1045 -1.25713 0.0864816 
yplus prom: 40.3509 
forces: 1085.317041 -0.023788 -570.852787 
Drag coefficient: 0.302881 
Lateral coefficient: -0.000007 
Lift coefficient: -0.159309 
torque (ref. CG): 0.033304 (roll) -1962.758144 (pitch) 0.145108 (yaw) 
----------------------------------------------------- 
step 7979, time 6.383200 
bounding box of vehicle: xmin -12.2 -1.30003 -2.38524e-18, xmax 2.38524e-18 1.30003 3.60011m 
gts area: 163.422 m2 
yplus max: 66.771, yplus min: 2.15705 
position of yplus max: -12.1045 -1.25713 0.0864816 
yplus prom: 40.3509 
forces: 1085.317661 -0.022754 -570.852986 
Drag coefficient: 0.302881 
Lateral coefficient: -0.000006 
Lift coefficient: -0.159309 
torque (ref. CG): 0.031855 (roll) -1962.758489 (pitch) 0.138797 (yaw) 
----------------------------------------------------- 
step 7980, time 6.384000 
bounding box of vehicle: xmin -12.2 -1.30003 -2.38524e-18, xmax 2.38524e-18 1.30003 3.60011m 
gts area: 163.422 m2 
yplus max: 66.771, yplus min: 2.15705 
position of yplus max: -12.1045 -1.25713 0.0864816 
yplus prom: 40.3509 
forces: 1085.317661 -0.022753 -570.852986 
Drag coefficient: 0.302881 
Lateral coefficient: -0.000006 
Lift coefficient: -0.159309 
torque (ref. CG): 0.031855 (roll) -1962.758489 (pitch) 0.138795 (yaw) 
----------------------------------------------------- 
step 7981, time 6.384800 
bounding box of vehicle: xmin -12.2 -1.30003 -2.38524e-18, xmax 2.38524e-18 1.30003 3.60011m 
gts area: 163.422 m2 
yplus max: 66.771, yplus min: 2.15705 
position of yplus max: -12.1045 -1.25713 0.0864816 
yplus prom: 40.3509 
forces: 1085.318281 -0.021094 -570.852626 
Drag coefficient: 0.302881 
Lateral coefficient: -0.000006 
Lift coefficient: -0.159309 
torque (ref. CG): 0.029531 (roll) -1962.755425 (pitch) 0.128671 (yaw) 
----------------------------------------------------- 
step 7982, time 6.385600 
bounding box of vehicle: xmin -12.2 -1.30003 -2.38524e-18, xmax 2.38524e-18 1.30003 3.60011m 
gts area: 163.422 m2 
yplus max: 66.771, yplus min: 2.15705 
position of yplus max: -12.1045 -1.25713 0.0864816 
yplus prom: 40.3509 
forces: 1085.318281 -0.021093 -570.852626 
Drag coefficient: 0.302881 
Lateral coefficient: -0.000006 
Lift coefficient: -0.159309 
torque (ref. CG): 0.029531 (roll) -1962.755425 (pitch) 0.128669 (yaw) 
----------------------------------------------------- 
step 7983, time 6.386400 
bounding box of vehicle: xmin -12.2 -1.30003 -2.38524e-18, xmax 2.38524e-18 1.30003 3.60011m 
gts area: 163.422 m2 
yplus max: 66.771, yplus min: 2.15705 
position of yplus max: -12.1045 -1.25713 0.0864816 
yplus prom: 40.3509 
forces: 1085.318644 -0.020516 -570.852612 
Drag coefficient: 0.302882 
Lateral coefficient: -0.000006 
Lift coefficient: -0.159309 
torque (ref. CG): 0.028722 (roll) -1962.754834 (pitch) 0.125145 (yaw) 
----------------------------------------------------- 
step 7984, time 6.387200 
bounding box of vehicle: xmin -12.2 -1.30003 -2.38524e-18, xmax 2.38524e-18 1.30003 3.60011m 
gts area: 163.422 m2 
yplus max: 66.771, yplus min: 2.15705 
position of yplus max: -12.1045 -1.25713 0.0864816 
yplus prom: 40.3509 
forces: 1085.318644 -0.020515 -570.852612 
Drag coefficient: 0.302882 
Lateral coefficient: -0.000006 
Lift coefficient: -0.159309 
torque (ref. CG): 0.028722 (roll) -1962.754834 (pitch) 0.125144 (yaw) 
----------------------------------------------------- 
step 7985, time 6.388000 
bounding box of vehicle: xmin -12.2 -1.30003 -2.38524e-18, xmax 2.38524e-18 1.30003 3.60011m 
gts area: 163.422 m2 
yplus max: 66.771, yplus min: 2.15705 
position of yplus max: -12.1045 -1.25713 0.0864816 
yplus prom: 40.3509 
forces: 1085.318916 -0.020349 -570.853288 
Drag coefficient: 0.302882 
Lateral coefficient: -0.000006 
Lift coefficient: -0.159309 
torque (ref. CG): 0.028489 (roll) -1962.758574 (pitch) 0.124131 (yaw) 
----------------------------------------------------- 
step 7986, time 6.388800 
bounding box of vehicle: xmin -12.2 -1.30003 -2.38524e-18, xmax 2.38524e-18 1.30003 3.60011m 
gts area: 163.422 m2 
yplus max: 66.771, yplus min: 2.15705 
position of yplus max: -12.1045 -1.25713 0.0864816 
yplus prom: 40.3509 
forces: 1085.318916 -0.020349 -570.853288 
Drag coefficient: 0.302882 
Lateral coefficient: -0.000006 
Lift coefficient: -0.159309 
torque (ref. CG): 0.028489 (roll) -1962.758574 (pitch) 0.124129 (yaw) 
----------------------------------------------------- 
step 7987, time 6.389600 
bounding box of vehicle: xmin -12.2 -1.30003 -2.38524e-18, xmax 2.38524e-18 1.30003 3.60011m 
gts area: 163.422 m2 
yplus max: 66.771, yplus min: 2.15705 
position of yplus max: -12.1045 -1.25713 0.0864816 
yplus prom: 40.3509 
forces: 1085.318929 -0.021743 -570.861215 
Drag coefficient: 0.302882 
Lateral coefficient: -0.000006 
Lift coefficient: -0.159311 
torque (ref. CG): 0.030440 (roll) -1962.806911 (pitch) 0.132631 (yaw) 
----------------------------------------------------- 
step 7988, time 6.390400 
bounding box of vehicle: xmin -12.2 -1.30003 -2.38524e-18, xmax 2.38524e-18 1.30003 3.60011m 
gts area: 163.422 m2 
yplus max: 66.771, yplus min: 2.15705 
position of yplus max: -12.1045 -1.25713 0.0864816 
yplus prom: 40.3509 
forces: 1085.318929 -0.021742 -570.861215 
Drag coefficient: 0.302882 
Lateral coefficient: -0.000006 
Lift coefficient: -0.159311 
torque (ref. CG): 0.030439 (roll) -1962.806911 (pitch) 0.132629 (yaw) 
----------------------------------------------------- 
step 7989, time 6.391200 
bounding box of vehicle: xmin -12.2 -1.30003 -2.38524e-18, xmax 2.38524e-18 1.30003 3.60011m 
gts area: 163.422 m2 
yplus max: 66.771, yplus min: 2.15705 
position of yplus max: -12.1045 -1.25713 0.0864816 
yplus prom: 40.3509 
forces: 1085.318436 -0.023465 -570.855942 
Drag coefficient: 0.302881 
Lateral coefficient: -0.000007 
Lift coefficient: -0.159310 
torque (ref. CG): 0.032851 (roll) -1962.775437 (pitch) 0.143137 (yaw) 
----------------------------------------------------- 
step 7990, time 6.392000 
bounding box of vehicle: xmin -12.2 -1.30003 -2.38524e-18, xmax 2.38524e-18 1.30003 3.60011m 
gts area: 163.422 m2 
yplus max: 66.771, yplus min: 2.15706 
position of yplus max: -12.1045 -1.25713 0.0864816 
yplus prom: 40.3509 
forces: 1085.318436 -0.023465 -570.855942 
Drag coefficient: 0.302881 
Lateral coefficient: -0.000007 
Lift coefficient: -0.159310 
torque (ref. CG): 0.032851 (roll) -1962.775437 (pitch) 0.143135 (yaw) 
----------------------------------------------------- 
step 7991, time 6.392800 
bounding box of vehicle: xmin -12.2 -1.30003 -2.38524e-18, xmax 2.38524e-18 1.30003 3.60011m 
gts area: 163.422 m2 
yplus max: 66.771, yplus min: 2.15705 
position of yplus max: -12.1045 -1.25713 0.0864816 
yplus prom: 40.3509 
forces: 1085.318425 -0.020748 -570.851832 
Drag coefficient: 0.302881 
Lateral coefficient: -0.000006 
Lift coefficient: -0.159308 
torque (ref. CG): 0.029047 (roll) -1962.750379 (pitch) 0.126563 (yaw) 
----------------------------------------------------- 
step 7992, time 6.393600 
bounding box of vehicle: xmin -12.2 -1.30003 -2.38524e-18, xmax 2.38524e-18 1.30003 3.60011m 
gts area: 163.422 m2 
yplus max: 66.771, yplus min: 2.15705 
position of yplus max: -12.1045 -1.25713 0.0864816 
yplus prom: 40.3509 
forces: 1085.318425 -0.020748 -570.851832 
Drag coefficient: 0.302881 
Lateral coefficient: -0.000006 
Lift coefficient: -0.159308 
torque (ref. CG): 0.029047 (roll) -1962.750379 (pitch) 0.126561 (yaw) 
----------------------------------------------------- 
step 7993, time 6.394400 
bounding box of vehicle: xmin -12.2 -1.30003 -2.38524e-18, xmax 2.38524e-18 1.30003 3.60011m 
gts area: 163.422 m2 
yplus max: 66.771, yplus min: 2.15705 
position of yplus max: -12.1045 -1.25713 0.0864816 
yplus prom: 40.3509 
forces: 1085.318559 -0.014311 -570.841198 
Drag coefficient: 0.302881 
Lateral coefficient: -0.000004 
Lift coefficient: -0.159306 
torque (ref. CG): 0.020036 (roll) -1962.685324 (pitch) 0.087299 (yaw) 
----------------------------------------------------- 
step 7994, time 6.395200 
bounding box of vehicle: xmin -12.2 -1.30003 -2.38524e-18, xmax 2.38524e-18 1.30003 3.60011m 
gts area: 163.422 m2 
yplus max: 66.771, yplus min: 2.15706 
position of yplus max: -12.1045 -1.25713 0.0864816 
yplus prom: 40.3509 
forces: 1085.318559 -0.014311 -570.841198 
Drag coefficient: 0.302881 
Lateral coefficient: -0.000004 
Lift coefficient: -0.159306 
torque (ref. CG): 0.020035 (roll) -1962.685323 (pitch) 0.087297 (yaw) 
----------------------------------------------------- 
step 7995, time 6.396000 
bounding box of vehicle: xmin -12.2 -1.30003 -2.38524e-18, xmax 2.38524e-18 1.30003 3.60011m 
gts area: 163.422 m2 
yplus max: 66.771, yplus min: 2.15706 
position of yplus max: -12.1045 -1.25713 0.0864816 
yplus prom: 40.3509 
forces: 1085.320225 -0.014766 -570.845887 
Drag coefficient: 0.302882 
Lateral coefficient: -0.000004 
Lift coefficient: -0.159307 
torque (ref. CG): 0.020673 (roll) -1962.711596 (pitch) 0.090073 (yaw) 
----------------------------------------------------- 
step 7996, time 6.396800 
bounding box of vehicle: xmin -12.2 -1.30003 -2.38524e-18, xmax 2.38524e-18 1.30003 3.60011m 
gts area: 163.422 m2 
yplus max: 66.771, yplus min: 2.15705 
position of yplus max: -12.1045 -1.25713 0.0864816 
yplus prom: 40.3509 
forces: 1085.320225 -0.014766 -570.845887 
Drag coefficient: 0.302882 
Lateral coefficient: -0.000004 
Lift coefficient: -0.159307 
torque (ref. CG): 0.020672 (roll) -1962.711597 (pitch) 0.090071 (yaw) 
----------------------------------------------------- 
step 7997, time 6.397600 
bounding box of vehicle: xmin -12.2 -1.30003 -2.38524e-18, xmax 2.38524e-18 1.30003 3.60011m 
gts area: 163.422 m2 
yplus max: 66.771, yplus min: 2.15706 
position of yplus max: -12.1045 -1.25713 0.0864816 
yplus prom: 40.3509 
forces: 1085.321266 -0.021302 -570.867757 
Drag coefficient: 0.302882 
Lateral coefficient: -0.000006 
Lift coefficient: -0.159313 
torque (ref. CG): 0.029823 (roll) -1962.843543 (pitch) 0.129942 (yaw) 
----------------------------------------------------- 
step 7998, time 6.398400 
bounding box of vehicle: xmin -12.2 -1.30003 -2.38524e-18, xmax 2.38524e-18 1.30003 3.60011m 
gts area: 163.422 m2 
yplus max: 66.771, yplus min: 2.15706 
position of yplus max: -12.1045 -1.25713 0.0864816 
yplus prom: 40.3509 
forces: 1085.321266 -0.021302 -570.867757 
Drag coefficient: 0.302882 
Lateral coefficient: -0.000006 
Lift coefficient: -0.159313 
torque (ref. CG): 0.029822 (roll) -1962.843543 (pitch) 0.129940 (yaw) 
----------------------------------------------------- 
step 7999, time 6.399200 
bounding box of vehicle: xmin -12.2 -1.30003 -2.38524e-18, xmax 2.38524e-18 1.30003 3.60011m 
gts area: 163.422 m2 
yplus max: 66.771, yplus min: 2.15706 
position of yplus max: -12.1045 -1.25713 0.0864816 
yplus prom: 40.3509 
forces: 1085.317628 -0.016496 -570.863772 
Drag coefficient: 0.302881 
Lateral coefficient: -0.000005 
Lift coefficient: -0.159312 
torque (ref. CG): 0.023095 (roll) -1962.824329 (pitch) 0.100627 (yaw) 
----------------------------------------------------- 
step 8000, time 6.400000 
bounding box of vehicle: xmin -12.2 -1.30003 -2.38524e-18, xmax 2.38524e-18 1.30003 3.60011m 
gts area: 163.422 m2 
yplus max: 66.771, yplus min: 2.15706 
position of yplus max: -12.1045 -1.25713 0.0864816 
yplus prom: 40.3509 
forces: 1085.313714 -0.014374 -570.851357 
Drag coefficient: 0.302880 
Lateral coefficient: -0.000004 
Lift coefficient: -0.159308 
torque (ref. CG): 0.020124 (roll) -1962.754078 (pitch) 0.087682 (yaw) 
----------------------------------------------------- 

 *****************************
  Post-calculation operations
 *****************************

Ends run at vie oct 7 06:35:48 ART 2022
