Start run at Tue Jul 26 07:08:23 ART 2022
PYTHON_CS_XFLAGS=' -O0 -g3 -ggdb3 -I/usr/include/jsoncpp ' /share/storage/pub/mstorti/saturne-vof/bin/code_saturne  run -n 4 --param setup.xml

The following have been reloaded with a version change:
  1) llvm/6.0.0 => llvm/3.4.2


The following have been reloaded with a version change:
  1) llvm/3.4.2 => llvm/6.0.0


                      Code_Saturne
                      ************

 Version:   6.1-alpha
 Path:      /share/storage/pub/mstorti/saturne-vof

 Result directory:
   /share/storage/finzeo/GTS_Tunay_2/RESU/20220726-0708


 ****************************************
  Compiling user subroutines and linking
 ****************************************


 ****************************
  Preparing calculation data
 ****************************

Warning:
   Will try to use 4 processes while resource manager (SLURM)
   allows for 80.

 Parallel Code_Saturne on 4 processes.


 ***************************
  Preprocessing calculation
 ***************************


 **********************
  Starting calculation
 **********************

Warning: Process to core binding is enabled and OMP_NUM_THREADS is set to non-zero (1) value
If your program has OpenMP sections, this can cause over-subscription of cores and consequently poor performance
To avoid this, please re-run your application after setting MV2_ENABLE_AFFINITY=0
Use MV2_USE_THREAD_WARNING=0 to suppress this message
step 1, time 0.001000, maxvel 2.000000, total vol 181389, vol(u>maxvel) 0, cell count 0
bounding box: xmin inf inf inf, xmax -inf -inf -infm 
step 2, time 0.002000, maxvel 2.000000, total vol 181389, vol(u>maxvel) 0, cell count 0
bounding box: xmin inf inf inf, xmax -inf -inf -infm 
step 3, time 0.003000, maxvel 2.000000, total vol 181389, vol(u>maxvel) 0, cell count 0
bounding box: xmin inf inf inf, xmax -inf -inf -infm 
step 4, time 0.004000, maxvel 2.000000, total vol 181389, vol(u>maxvel) 0, cell count 0
bounding box: xmin inf inf inf, xmax -inf -inf -infm 
step 5, time 0.005000, maxvel 2.000000, total vol 181389, vol(u>maxvel) 0, cell count 0
bounding box: xmin inf inf inf, xmax -inf -inf -infm 
step 6, time 0.006000, maxvel 2.000000, total vol 181389, vol(u>maxvel) 0, cell count 0
bounding box: xmin inf inf inf, xmax -inf -inf -infm 
step 7, time 0.007000, maxvel 2.000000, total vol 181389, vol(u>maxvel) 0, cell count 0
bounding box: xmin inf inf inf, xmax -inf -inf -infm 
step 8, time 0.008000, maxvel 2.000000, total vol 181389, vol(u>maxvel) 0, cell count 0
bounding box: xmin inf inf inf, xmax -inf -inf -infm 
step 9, time 0.009000, maxvel 2.000000, total vol 181389, vol(u>maxvel) 0, cell count 0
bounding box: xmin inf inf inf, xmax -inf -inf -infm 
step 10, time 0.010000, maxvel 2.000000, total vol 181389, vol(u>maxvel) 0, cell count 0
bounding box: xmin inf inf inf, xmax -inf -inf -infm 
step 11, time 0.011000, maxvel 2.000000, total vol 181389, vol(u>maxvel) 0, cell count 0
bounding box: xmin inf inf inf, xmax -inf -inf -infm 
step 12, time 0.012000, maxvel 2.000000, total vol 181389, vol(u>maxvel) 0, cell count 0
bounding box: xmin inf inf inf, xmax -inf -inf -infm 
step 13, time 0.013000, maxvel 2.000000, total vol 181389, vol(u>maxvel) 0, cell count 0
bounding box: xmin inf inf inf, xmax -inf -inf -infm 
step 14, time 0.014000, maxvel 2.000000, total vol 181389, vol(u>maxvel) 0, cell count 0
bounding box: xmin inf inf inf, xmax -inf -inf -infm 
step 15, time 0.015000, maxvel 2.000000, total vol 181389, vol(u>maxvel) 0, cell count 0
bounding box: xmin inf inf inf, xmax -inf -inf -infm 
step 16, time 0.016000, maxvel 2.000000, total vol 181389, vol(u>maxvel) 0, cell count 0
bounding box: xmin inf inf inf, xmax -inf -inf -infm 
step 17, time 0.017000, maxvel 2.000000, total vol 181389, vol(u>maxvel) 0, cell count 0
bounding box: xmin inf inf inf, xmax -inf -inf -infm 
step 18, time 0.018000, maxvel 2.000000, total vol 181389, vol(u>maxvel) 0, cell count 0
bounding box: xmin inf inf inf, xmax -inf -inf -infm 
step 19, time 0.019000, maxvel 2.000000, total vol 181389, vol(u>maxvel) 0, cell count 0
bounding box: xmin inf inf inf, xmax -inf -inf -infm 
step 20, time 0.020000, maxvel 2.000000, total vol 181389, vol(u>maxvel) 0, cell count 0
bounding box: xmin inf inf inf, xmax -inf -inf -infm 
step 21, time 0.021000, maxvel 2.000000, total vol 181389, vol(u>maxvel) 0, cell count 0
bounding box: xmin inf inf inf, xmax -inf -inf -infm 
step 22, time 0.022000, maxvel 2.000000, total vol 181389, vol(u>maxvel) 0, cell count 0
bounding box: xmin inf inf inf, xmax -inf -inf -infm 
step 23, time 0.023000, maxvel 2.000000, total vol 181389, vol(u>maxvel) 0, cell count 0
bounding box: xmin inf inf inf, xmax -inf -inf -infm 
step 24, time 0.024000, maxvel 2.000000, total vol 181389, vol(u>maxvel) 0, cell count 0
bounding box: xmin inf inf inf, xmax -inf -inf -infm 
step 25, time 0.025000, maxvel 2.000000, total vol 181389, vol(u>maxvel) 0, cell count 0
bounding box: xmin inf inf inf, xmax -inf -inf -infm 
step 26, time 0.026000, maxvel 2.000000, total vol 181389, vol(u>maxvel) 0, cell count 0
bounding box: xmin inf inf inf, xmax -inf -inf -infm 
step 27, time 0.027000, maxvel 2.000000, total vol 181389, vol(u>maxvel) 0, cell count 0
bounding box: xmin inf inf inf, xmax -inf -inf -infm 
step 28, time 0.028000, maxvel 2.000000, total vol 181389, vol(u>maxvel) 0, cell count 0
bounding box: xmin inf inf inf, xmax -inf -inf -infm 
step 29, time 0.029000, maxvel 2.000000, total vol 181389, vol(u>maxvel) 0, cell count 0
bounding box: xmin inf inf inf, xmax -inf -inf -infm 
step 30, time 0.030000, maxvel 2.000000, total vol 181389, vol(u>maxvel) 0, cell count 0
bounding box: xmin inf inf inf, xmax -inf -inf -infm 
step 31, time 0.031000, maxvel 2.000000, total vol 181389, vol(u>maxvel) 0, cell count 0
bounding box: xmin inf inf inf, xmax -inf -inf -infm 
step 32, time 0.032000, maxvel 2.000000, total vol 181389, vol(u>maxvel) 0, cell count 0
bounding box: xmin inf inf inf, xmax -inf -inf -infm 
step 33, time 0.033000, maxvel 2.000000, total vol 181389, vol(u>maxvel) 0, cell count 0
bounding box: xmin inf inf inf, xmax -inf -inf -infm 
step 34, time 0.034000, maxvel 2.000000, total vol 181389, vol(u>maxvel) 0, cell count 0
bounding box: xmin inf inf inf, xmax -inf -inf -infm 
step 35, time 0.035000, maxvel 2.000000, total vol 181389, vol(u>maxvel) 0, cell count 0
bounding box: xmin inf inf inf, xmax -inf -inf -infm 
step 36, time 0.036000, maxvel 2.000000, total vol 181389, vol(u>maxvel) 0, cell count 0
bounding box: xmin inf inf inf, xmax -inf -inf -infm 
step 37, time 0.037000, maxvel 2.000000, total vol 181389, vol(u>maxvel) 0, cell count 0
bounding box: xmin inf inf inf, xmax -inf -inf -infm 
step 38, time 0.038000, maxvel 2.000000, total vol 181389, vol(u>maxvel) 0, cell count 0
bounding box: xmin inf inf inf, xmax -inf -inf -infm 
step 39, time 0.039000, maxvel 2.000000, total vol 181389, vol(u>maxvel) 0, cell count 0
bounding box: xmin inf inf inf, xmax -inf -inf -infm 
step 40, time 0.040000, maxvel 2.000000, total vol 181389, vol(u>maxvel) 0, cell count 0
bounding box: xmin inf inf inf, xmax -inf -inf -infm 
step 41, time 0.041000, maxvel 2.000000, total vol 181389, vol(u>maxvel) 0, cell count 0
bounding box: xmin inf inf inf, xmax -inf -inf -infm 
step 42, time 0.042000, maxvel 2.000000, total vol 181389, vol(u>maxvel) 0, cell count 0
bounding box: xmin inf inf inf, xmax -inf -inf -infm 
step 43, time 0.043000, maxvel 2.000000, total vol 181389, vol(u>maxvel) 0, cell count 0
bounding box: xmin inf inf inf, xmax -inf -inf -infm 
step 44, time 0.044000, maxvel 2.000000, total vol 181389, vol(u>maxvel) 0, cell count 0
bounding box: xmin inf inf inf, xmax -inf -inf -infm 
step 45, time 0.045000, maxvel 2.000000, total vol 181389, vol(u>maxvel) 0, cell count 0
bounding box: xmin inf inf inf, xmax -inf -inf -infm 
step 46, time 0.046000, maxvel 2.000000, total vol 181389, vol(u>maxvel) 0, cell count 0
bounding box: xmin inf inf inf, xmax -inf -inf -infm 
step 47, time 0.047000, maxvel 2.000000, total vol 181389, vol(u>maxvel) 0, cell count 0
bounding box: xmin inf inf inf, xmax -inf -inf -infm 
step 48, time 0.048000, maxvel 2.000000, total vol 181389, vol(u>maxvel) 0, cell count 0
bounding box: xmin inf inf inf, xmax -inf -inf -infm 
step 49, time 0.049000, maxvel 2.000000, total vol 181389, vol(u>maxvel) 0, cell count 0
bounding box: xmin inf inf inf, xmax -inf -inf -infm 
step 50, time 0.050000, maxvel 2.000000, total vol 181389, vol(u>maxvel) 0, cell count 0
bounding box: xmin inf inf inf, xmax -inf -inf -infm 
step 51, time 0.051000, maxvel 2.000000, total vol 181389, vol(u>maxvel) 0, cell count 0
bounding box: xmin inf inf inf, xmax -inf -inf -infm 
step 52, time 0.052000, maxvel 2.000000, total vol 181389, vol(u>maxvel) 0, cell count 0
bounding box: xmin inf inf inf, xmax -inf -inf -infm 
step 53, time 0.053000, maxvel 2.000000, total vol 181389, vol(u>maxvel) 0, cell count 0
bounding box: xmin inf inf inf, xmax -inf -inf -infm 
step 54, time 0.054000, maxvel 2.000000, total vol 181389, vol(u>maxvel) 0, cell count 0
bounding box: xmin inf inf inf, xmax -inf -inf -infm 
step 55, time 0.055000, maxvel 2.000000, total vol 181389, vol(u>maxvel) 0, cell count 0
bounding box: xmin inf inf inf, xmax -inf -inf -infm 
step 56, time 0.056000, maxvel 2.000000, total vol 181389, vol(u>maxvel) 0, cell count 0
bounding box: xmin inf inf inf, xmax -inf -inf -infm 
step 57, time 0.057000, maxvel 2.000000, total vol 181389, vol(u>maxvel) 0, cell count 0
bounding box: xmin inf inf inf, xmax -inf -inf -infm 
step 58, time 0.058000, maxvel 2.000000, total vol 181389, vol(u>maxvel) 0, cell count 0
bounding box: xmin inf inf inf, xmax -inf -inf -infm 
step 59, time 0.059000, maxvel 2.000000, total vol 181389, vol(u>maxvel) 0, cell count 0
bounding box: xmin inf inf inf, xmax -inf -inf -infm 
step 60, time 0.060000, maxvel 2.000000, total vol 181389, vol(u>maxvel) 0, cell count 0
bounding box: xmin inf inf inf, xmax -inf -inf -infm 
step 61, time 0.061000, maxvel 2.000000, total vol 181389, vol(u>maxvel) 0, cell count 0
bounding box: xmin inf inf inf, xmax -inf -inf -infm 
step 62, time 0.062000, maxvel 2.000000, total vol 181389, vol(u>maxvel) 0, cell count 0
bounding box: xmin inf inf inf, xmax -inf -inf -infm 
step 63, time 0.063000, maxvel 2.000000, total vol 181389, vol(u>maxvel) 0, cell count 0
bounding box: xmin inf inf inf, xmax -inf -inf -infm 
step 64, time 0.064000, maxvel 2.000000, total vol 181389, vol(u>maxvel) 0, cell count 0
bounding box: xmin inf inf inf, xmax -inf -inf -infm 
step 65, time 0.065000, maxvel 2.000000, total vol 181389, vol(u>maxvel) 0, cell count 0
bounding box: xmin inf inf inf, xmax -inf -inf -infm 
step 66, time 0.066000, maxvel 2.000000, total vol 181389, vol(u>maxvel) 0, cell count 0
bounding box: xmin inf inf inf, xmax -inf -inf -infm 
step 67, time 0.067000, maxvel 2.000000, total vol 181389, vol(u>maxvel) 0, cell count 0
bounding box: xmin inf inf inf, xmax -inf -inf -infm 
step 68, time 0.068000, maxvel 2.000000, total vol 181389, vol(u>maxvel) 0, cell count 0
bounding box: xmin inf inf inf, xmax -inf -inf -infm 
step 69, time 0.069000, maxvel 2.000000, total vol 181389, vol(u>maxvel) 0, cell count 0
bounding box: xmin inf inf inf, xmax -inf -inf -infm 
step 70, time 0.070000, maxvel 2.000000, total vol 181389, vol(u>maxvel) 0, cell count 0
bounding box: xmin inf inf inf, xmax -inf -inf -infm 
step 71, time 0.071000, maxvel 2.000000, total vol 181389, vol(u>maxvel) 0, cell count 0
bounding box: xmin inf inf inf, xmax -inf -inf -infm 
step 72, time 0.072000, maxvel 2.000000, total vol 181389, vol(u>maxvel) 0, cell count 0
bounding box: xmin inf inf inf, xmax -inf -inf -infm 
step 73, time 0.073000, maxvel 2.000000, total vol 181389, vol(u>maxvel) 0, cell count 0
bounding box: xmin inf inf inf, xmax -inf -inf -infm 
step 74, time 0.074000, maxvel 2.000000, total vol 181389, vol(u>maxvel) 0, cell count 0
bounding box: xmin inf inf inf, xmax -inf -inf -infm 
step 75, time 0.075000, maxvel 2.000000, total vol 181389, vol(u>maxvel) 0, cell count 0
bounding box: xmin inf inf inf, xmax -inf -inf -infm 
step 76, time 0.076000, maxvel 2.000000, total vol 181389, vol(u>maxvel) 0, cell count 0
bounding box: xmin inf inf inf, xmax -inf -inf -infm 
step 77, time 0.077000, maxvel 2.000000, total vol 181389, vol(u>maxvel) 0, cell count 0
bounding box: xmin inf inf inf, xmax -inf -inf -infm 
step 78, time 0.078000, maxvel 2.000000, total vol 181389, vol(u>maxvel) 0, cell count 0
bounding box: xmin inf inf inf, xmax -inf -inf -infm 
step 79, time 0.079000, maxvel 2.000000, total vol 181389, vol(u>maxvel) 0, cell count 0
bounding box: xmin inf inf inf, xmax -inf -inf -infm 
step 80, time 0.080000, maxvel 2.000000, total vol 181389, vol(u>maxvel) 0, cell count 0
bounding box: xmin inf inf inf, xmax -inf -inf -infm 
step 81, time 0.081000, maxvel 2.000000, total vol 181389, vol(u>maxvel) 0, cell count 0
bounding box: xmin inf inf inf, xmax -inf -inf -infm 
step 82, time 0.082000, maxvel 2.000000, total vol 181389, vol(u>maxvel) 0, cell count 0
bounding box: xmin inf inf inf, xmax -inf -inf -infm 
step 83, time 0.083000, maxvel 2.000000, total vol 181389, vol(u>maxvel) 0, cell count 0
bounding box: xmin inf inf inf, xmax -inf -inf -infm 
step 84, time 0.084000, maxvel 2.000000, total vol 181389, vol(u>maxvel) 0, cell count 0
bounding box: xmin inf inf inf, xmax -inf -inf -infm 
step 85, time 0.085000, maxvel 2.000000, total vol 181389, vol(u>maxvel) 0, cell count 0
bounding box: xmin inf inf inf, xmax -inf -inf -infm 
step 86, time 0.086000, maxvel 2.000000, total vol 181389, vol(u>maxvel) 0, cell count 0
bounding box: xmin inf inf inf, xmax -inf -inf -infm 
step 87, time 0.087000, maxvel 2.000000, total vol 181389, vol(u>maxvel) 0, cell count 0
bounding box: xmin inf inf inf, xmax -inf -inf -infm 
step 88, time 0.088000, maxvel 2.000000, total vol 181389, vol(u>maxvel) 0, cell count 0
bounding box: xmin inf inf inf, xmax -inf -inf -infm 
step 89, time 0.089000, maxvel 2.000000, total vol 181389, vol(u>maxvel) 0, cell count 0
bounding box: xmin inf inf inf, xmax -inf -inf -infm 
step 90, time 0.090000, maxvel 2.000000, total vol 181389, vol(u>maxvel) 0, cell count 0
bounding box: xmin inf inf inf, xmax -inf -inf -infm 
step 91, time 0.091000, maxvel 2.000000, total vol 181389, vol(u>maxvel) 0, cell count 0
bounding box: xmin inf inf inf, xmax -inf -inf -infm 
step 92, time 0.092000, maxvel 2.000000, total vol 181389, vol(u>maxvel) 0, cell count 0
bounding box: xmin inf inf inf, xmax -inf -inf -infm 
step 93, time 0.093000, maxvel 2.000000, total vol 181389, vol(u>maxvel) 0, cell count 0
bounding box: xmin inf inf inf, xmax -inf -inf -infm 
step 94, time 0.094000, maxvel 2.000000, total vol 181389, vol(u>maxvel) 0, cell count 0
bounding box: xmin inf inf inf, xmax -inf -inf -infm 
step 95, time 0.095000, maxvel 2.000000, total vol 181389, vol(u>maxvel) 0, cell count 0
bounding box: xmin inf inf inf, xmax -inf -inf -infm 
step 96, time 0.096000, maxvel 2.000000, total vol 181389, vol(u>maxvel) 0, cell count 0
bounding box: xmin inf inf inf, xmax -inf -inf -infm 
step 97, time 0.097000, maxvel 2.000000, total vol 181389, vol(u>maxvel) 0, cell count 0
bounding box: xmin inf inf inf, xmax -inf -inf -infm 
step 98, time 0.098000, maxvel 2.000000, total vol 181389, vol(u>maxvel) 0, cell count 0
bounding box: xmin inf inf inf, xmax -inf -inf -infm 
step 99, time 0.099000, maxvel 2.000000, total vol 181389, vol(u>maxvel) 0, cell count 0
bounding box: xmin inf inf inf, xmax -inf -inf -infm 
step 100, time 0.100000, maxvel 2.000000, total vol 181389, vol(u>maxvel) 0, cell count 0
bounding box: xmin inf inf inf, xmax -inf -inf -infm 
step 101, time 0.101000, maxvel 2.000000, total vol 181389, vol(u>maxvel) 0, cell count 0
bounding box: xmin inf inf inf, xmax -inf -inf -infm 
step 102, time 0.102000, maxvel 2.000000, total vol 181389, vol(u>maxvel) 0, cell count 0
bounding box: xmin inf inf inf, xmax -inf -inf -infm 
step 103, time 0.103000, maxvel 2.000000, total vol 181389, vol(u>maxvel) 0, cell count 0
bounding box: xmin inf inf inf, xmax -inf -inf -infm 
step 104, time 0.104000, maxvel 2.000000, total vol 181389, vol(u>maxvel) 0, cell count 0
bounding box: xmin inf inf inf, xmax -inf -inf -infm 
step 105, time 0.105000, maxvel 2.000000, total vol 181389, vol(u>maxvel) 0, cell count 0
bounding box: xmin inf inf inf, xmax -inf -inf -infm 
step 106, time 0.106000, maxvel 2.000000, total vol 181389, vol(u>maxvel) 0, cell count 0
bounding box: xmin inf inf inf, xmax -inf -inf -infm 
step 107, time 0.107000, maxvel 2.000000, total vol 181389, vol(u>maxvel) 0, cell count 0
bounding box: xmin inf inf inf, xmax -inf -inf -infm 
step 108, time 0.108000, maxvel 2.000000, total vol 181389, vol(u>maxvel) 0, cell count 0
bounding box: xmin inf inf inf, xmax -inf -inf -infm 
step 109, time 0.109000, maxvel 2.000000, total vol 181389, vol(u>maxvel) 0, cell count 0
bounding box: xmin inf inf inf, xmax -inf -inf -infm 
step 110, time 0.110000, maxvel 2.000000, total vol 181389, vol(u>maxvel) 0, cell count 0
bounding box: xmin inf inf inf, xmax -inf -inf -infm 
step 111, time 0.111000, maxvel 2.000000, total vol 181389, vol(u>maxvel) 0, cell count 0
bounding box: xmin inf inf inf, xmax -inf -inf -infm 
step 112, time 0.112000, maxvel 2.000000, total vol 181389, vol(u>maxvel) 0, cell count 0
bounding box: xmin inf inf inf, xmax -inf -inf -infm 
step 113, time 0.113000, maxvel 2.000000, total vol 181389, vol(u>maxvel) 0, cell count 0
bounding box: xmin inf inf inf, xmax -inf -inf -infm 
step 114, time 0.114000, maxvel 2.000000, total vol 181389, vol(u>maxvel) 0, cell count 0
bounding box: xmin inf inf inf, xmax -inf -inf -infm 
step 115, time 0.115000, maxvel 2.000000, total vol 181389, vol(u>maxvel) 0, cell count 0
bounding box: xmin inf inf inf, xmax -inf -inf -infm 
step 116, time 0.116000, maxvel 2.000000, total vol 181389, vol(u>maxvel) 0, cell count 0
bounding box: xmin inf inf inf, xmax -inf -inf -infm 
step 117, time 0.117000, maxvel 2.000000, total vol 181389, vol(u>maxvel) 0, cell count 0
bounding box: xmin inf inf inf, xmax -inf -inf -infm 
step 118, time 0.118000, maxvel 2.000000, total vol 181389, vol(u>maxvel) 0, cell count 0
bounding box: xmin inf inf inf, xmax -inf -inf -infm 
step 119, time 0.119000, maxvel 2.000000, total vol 181389, vol(u>maxvel) 0, cell count 0
bounding box: xmin inf inf inf, xmax -inf -inf -infm 
step 120, time 0.120000, maxvel 2.000000, total vol 181389, vol(u>maxvel) 0, cell count 0
bounding box: xmin inf inf inf, xmax -inf -inf -infm 
step 121, time 0.121000, maxvel 2.000000, total vol 181389, vol(u>maxvel) 0, cell count 0
bounding box: xmin inf inf inf, xmax -inf -inf -infm 
step 122, time 0.122000, maxvel 2.000000, total vol 181389, vol(u>maxvel) 0, cell count 0
bounding box: xmin inf inf inf, xmax -inf -inf -infm 
step 123, time 0.123000, maxvel 2.000000, total vol 181389, vol(u>maxvel) 0, cell count 0
bounding box: xmin inf inf inf, xmax -inf -inf -infm 
step 124, time 0.124000, maxvel 2.000000, total vol 181389, vol(u>maxvel) 0, cell count 0
bounding box: xmin inf inf inf, xmax -inf -inf -infm 
step 125, time 0.125000, maxvel 2.000000, total vol 181389, vol(u>maxvel) 0, cell count 0
bounding box: xmin inf inf inf, xmax -inf -inf -infm 
step 126, time 0.126000, maxvel 2.000000, total vol 181389, vol(u>maxvel) 0, cell count 0
bounding box: xmin inf inf inf, xmax -inf -inf -infm 
step 127, time 0.127000, maxvel 2.000000, total vol 181389, vol(u>maxvel) 0, cell count 0
bounding box: xmin inf inf inf, xmax -inf -inf -infm 
step 128, time 0.128000, maxvel 2.000000, total vol 181389, vol(u>maxvel) 0, cell count 0
bounding box: xmin inf inf inf, xmax -inf -inf -infm 
step 129, time 0.129000, maxvel 2.000000, total vol 181389, vol(u>maxvel) 0, cell count 0
bounding box: xmin inf inf inf, xmax -inf -inf -infm 
step 130, time 0.130000, maxvel 2.000000, total vol 181389, vol(u>maxvel) 0, cell count 0
bounding box: xmin inf inf inf, xmax -inf -inf -infm 
step 131, time 0.131000, maxvel 2.000000, total vol 181389, vol(u>maxvel) 0, cell count 0
bounding box: xmin inf inf inf, xmax -inf -inf -infm 
step 132, time 0.132000, maxvel 2.000000, total vol 181389, vol(u>maxvel) 0, cell count 0
bounding box: xmin inf inf inf, xmax -inf -inf -infm 
step 133, time 0.133000, maxvel 2.000000, total vol 181389, vol(u>maxvel) 0, cell count 0
bounding box: xmin inf inf inf, xmax -inf -inf -infm 
step 134, time 0.134000, maxvel 2.000000, total vol 181389, vol(u>maxvel) 0, cell count 0
bounding box: xmin inf inf inf, xmax -inf -inf -infm 
step 135, time 0.135000, maxvel 2.000000, total vol 181389, vol(u>maxvel) 0, cell count 0
bounding box: xmin inf inf inf, xmax -inf -inf -infm 
step 136, time 0.136000, maxvel 2.000000, total vol 181389, vol(u>maxvel) 0, cell count 0
bounding box: xmin inf inf inf, xmax -inf -inf -infm 
step 137, time 0.137000, maxvel 2.000000, total vol 181389, vol(u>maxvel) 0, cell count 0
bounding box: xmin inf inf inf, xmax -inf -inf -infm 
step 138, time 0.138000, maxvel 2.000000, total vol 181389, vol(u>maxvel) 0, cell count 0
bounding box: xmin inf inf inf, xmax -inf -inf -infm 
step 139, time 0.139000, maxvel 2.000000, total vol 181389, vol(u>maxvel) 0, cell count 0
bounding box: xmin inf inf inf, xmax -inf -inf -infm 
step 140, time 0.140000, maxvel 2.000000, total vol 181389, vol(u>maxvel) 0, cell count 0
bounding box: xmin inf inf inf, xmax -inf -inf -infm 
step 141, time 0.141000, maxvel 2.000000, total vol 181389, vol(u>maxvel) 0, cell count 0
bounding box: xmin inf inf inf, xmax -inf -inf -infm 
step 142, time 0.142000, maxvel 2.000000, total vol 181389, vol(u>maxvel) 0, cell count 0
bounding box: xmin inf inf inf, xmax -inf -inf -infm 
step 143, time 0.143000, maxvel 2.000000, total vol 181389, vol(u>maxvel) 0, cell count 0
bounding box: xmin inf inf inf, xmax -inf -inf -infm 
step 144, time 0.144000, maxvel 2.000000, total vol 181389, vol(u>maxvel) 0, cell count 0
bounding box: xmin inf inf inf, xmax -inf -inf -infm 
step 145, time 0.145000, maxvel 2.000000, total vol 181389, vol(u>maxvel) 0, cell count 0
bounding box: xmin inf inf inf, xmax -inf -inf -infm 
step 146, time 0.146000, maxvel 2.000000, total vol 181389, vol(u>maxvel) 0, cell count 0
bounding box: xmin inf inf inf, xmax -inf -inf -infm 
step 147, time 0.147000, maxvel 2.000000, total vol 181389, vol(u>maxvel) 0, cell count 0
bounding box: xmin inf inf inf, xmax -inf -inf -infm 
step 148, time 0.148000, maxvel 2.000000, total vol 181389, vol(u>maxvel) 0, cell count 0
bounding box: xmin inf inf inf, xmax -inf -inf -infm 
step 149, time 0.149000, maxvel 2.000000, total vol 181389, vol(u>maxvel) 0, cell count 0
bounding box: xmin inf inf inf, xmax -inf -inf -infm 
step 150, time 0.150000, maxvel 2.000000, total vol 181389, vol(u>maxvel) 0, cell count 0
bounding box: xmin inf inf inf, xmax -inf -inf -infm 
step 151, time 0.151000, maxvel 2.000000, total vol 181389, vol(u>maxvel) 0, cell count 0
bounding box: xmin inf inf inf, xmax -inf -inf -infm 
step 152, time 0.152000, maxvel 2.000000, total vol 181389, vol(u>maxvel) 0, cell count 0
bounding box: xmin inf inf inf, xmax -inf -inf -infm 
step 153, time 0.153000, maxvel 2.000000, total vol 181389, vol(u>maxvel) 0, cell count 0
bounding box: xmin inf inf inf, xmax -inf -inf -infm 
step 154, time 0.154000, maxvel 2.000000, total vol 181389, vol(u>maxvel) 0, cell count 0
bounding box: xmin inf inf inf, xmax -inf -inf -infm 
step 155, time 0.155000, maxvel 2.000000, total vol 181389, vol(u>maxvel) 0, cell count 0
bounding box: xmin inf inf inf, xmax -inf -inf -infm 
step 156, time 0.156000, maxvel 2.000000, total vol 181389, vol(u>maxvel) 0, cell count 0
bounding box: xmin inf inf inf, xmax -inf -inf -infm 
step 157, time 0.157000, maxvel 2.000000, total vol 181389, vol(u>maxvel) 0, cell count 0
bounding box: xmin inf inf inf, xmax -inf -inf -infm 
step 158, time 0.158000, maxvel 2.000000, total vol 181389, vol(u>maxvel) 0, cell count 0
bounding box: xmin inf inf inf, xmax -inf -inf -infm 
step 159, time 0.159000, maxvel 2.000000, total vol 181389, vol(u>maxvel) 0, cell count 0
bounding box: xmin inf inf inf, xmax -inf -inf -infm 
step 160, time 0.160000, maxvel 2.000000, total vol 181389, vol(u>maxvel) 0, cell count 0
bounding box: xmin inf inf inf, xmax -inf -inf -infm 
step 161, time 0.161000, maxvel 2.000000, total vol 181389, vol(u>maxvel) 0, cell count 0
bounding box: xmin inf inf inf, xmax -inf -inf -infm 
step 162, time 0.162000, maxvel 2.000000, total vol 181389, vol(u>maxvel) 0, cell count 0
bounding box: xmin inf inf inf, xmax -inf -inf -infm 
step 163, time 0.163000, maxvel 2.000000, total vol 181389, vol(u>maxvel) 0, cell count 0
bounding box: xmin inf inf inf, xmax -inf -inf -infm 
step 164, time 0.164000, maxvel 2.000000, total vol 181389, vol(u>maxvel) 0, cell count 0
bounding box: xmin inf inf inf, xmax -inf -inf -infm 
step 165, time 0.165000, maxvel 2.000000, total vol 181389, vol(u>maxvel) 0, cell count 0
bounding box: xmin inf inf inf, xmax -inf -inf -infm 
step 166, time 0.166000, maxvel 2.000000, total vol 181389, vol(u>maxvel) 0, cell count 0
bounding box: xmin inf inf inf, xmax -inf -inf -infm 
step 167, time 0.167000, maxvel 2.000000, total vol 181389, vol(u>maxvel) 0, cell count 0
bounding box: xmin inf inf inf, xmax -inf -inf -infm 
step 168, time 0.168000, maxvel 2.000000, total vol 181389, vol(u>maxvel) 0, cell count 0
bounding box: xmin inf inf inf, xmax -inf -inf -infm 
step 169, time 0.169000, maxvel 2.000000, total vol 181389, vol(u>maxvel) 0, cell count 0
bounding box: xmin inf inf inf, xmax -inf -inf -infm 
step 170, time 0.170000, maxvel 2.000000, total vol 181389, vol(u>maxvel) 0, cell count 0
bounding box: xmin inf inf inf, xmax -inf -inf -infm 
step 171, time 0.171000, maxvel 2.000000, total vol 181389, vol(u>maxvel) 0, cell count 0
bounding box: xmin inf inf inf, xmax -inf -inf -infm 
step 172, time 0.172000, maxvel 2.000000, total vol 181389, vol(u>maxvel) 0, cell count 0
bounding box: xmin inf inf inf, xmax -inf -inf -infm 
step 173, time 0.173000, maxvel 2.000000, total vol 181389, vol(u>maxvel) 0, cell count 0
bounding box: xmin inf inf inf, xmax -inf -inf -infm 
step 174, time 0.174000, maxvel 2.000000, total vol 181389, vol(u>maxvel) 0, cell count 0
bounding box: xmin inf inf inf, xmax -inf -inf -infm 
step 175, time 0.175000, maxvel 2.000000, total vol 181389, vol(u>maxvel) 0, cell count 0
bounding box: xmin inf inf inf, xmax -inf -inf -infm 
step 176, time 0.176000, maxvel 2.000000, total vol 181389, vol(u>maxvel) 0, cell count 0
bounding box: xmin inf inf inf, xmax -inf -inf -infm 
step 177, time 0.177000, maxvel 2.000000, total vol 181389, vol(u>maxvel) 0, cell count 0
bounding box: xmin inf inf inf, xmax -inf -inf -infm 
step 178, time 0.178000, maxvel 2.000000, total vol 181389, vol(u>maxvel) 0, cell count 0
bounding box: xmin inf inf inf, xmax -inf -inf -infm 
step 179, time 0.179000, maxvel 2.000000, total vol 181389, vol(u>maxvel) 0, cell count 0
bounding box: xmin inf inf inf, xmax -inf -inf -infm 
step 180, time 0.180000, maxvel 2.000000, total vol 181389, vol(u>maxvel) 0, cell count 0
bounding box: xmin inf inf inf, xmax -inf -inf -infm 
step 181, time 0.181000, maxvel 2.000000, total vol 181389, vol(u>maxvel) 0, cell count 0
bounding box: xmin inf inf inf, xmax -inf -inf -infm 
step 182, time 0.182000, maxvel 2.000000, total vol 181389, vol(u>maxvel) 0, cell count 0
bounding box: xmin inf inf inf, xmax -inf -inf -infm 
step 183, time 0.183000, maxvel 2.000000, total vol 181389, vol(u>maxvel) 0, cell count 0
bounding box: xmin inf inf inf, xmax -inf -inf -infm 
step 184, time 0.184000, maxvel 2.000000, total vol 181389, vol(u>maxvel) 0, cell count 0
bounding box: xmin inf inf inf, xmax -inf -inf -infm 
step 185, time 0.185000, maxvel 2.000000, total vol 181389, vol(u>maxvel) 0, cell count 0
bounding box: xmin inf inf inf, xmax -inf -inf -infm 
step 186, time 0.186000, maxvel 2.000000, total vol 181389, vol(u>maxvel) 0, cell count 0
bounding box: xmin inf inf inf, xmax -inf -inf -infm 
step 187, time 0.187000, maxvel 2.000000, total vol 181389, vol(u>maxvel) 0, cell count 0
bounding box: xmin inf inf inf, xmax -inf -inf -infm 
step 188, time 0.188000, maxvel 2.000000, total vol 181389, vol(u>maxvel) 0, cell count 0
bounding box: xmin inf inf inf, xmax -inf -inf -infm 
step 189, time 0.189000, maxvel 2.000000, total vol 181389, vol(u>maxvel) 0, cell count 0
bounding box: xmin inf inf inf, xmax -inf -inf -infm 
step 190, time 0.190000, maxvel 2.000000, total vol 181389, vol(u>maxvel) 0, cell count 0
bounding box: xmin inf inf inf, xmax -inf -inf -infm 
step 191, time 0.191000, maxvel 2.000000, total vol 181389, vol(u>maxvel) 0, cell count 0
bounding box: xmin inf inf inf, xmax -inf -inf -infm 
step 192, time 0.192000, maxvel 2.000000, total vol 181389, vol(u>maxvel) 0, cell count 0
bounding box: xmin inf inf inf, xmax -inf -inf -infm 
step 193, time 0.193000, maxvel 2.000000, total vol 181389, vol(u>maxvel) 0, cell count 0
bounding box: xmin inf inf inf, xmax -inf -inf -infm 
step 194, time 0.194000, maxvel 2.000000, total vol 181389, vol(u>maxvel) 0, cell count 0
bounding box: xmin inf inf inf, xmax -inf -inf -infm 
step 195, time 0.195000, maxvel 2.000000, total vol 181389, vol(u>maxvel) 0, cell count 0
bounding box: xmin inf inf inf, xmax -inf -inf -infm 
step 196, time 0.196000, maxvel 2.000000, total vol 181389, vol(u>maxvel) 0, cell count 0
bounding box: xmin inf inf inf, xmax -inf -inf -infm 
step 197, time 0.197000, maxvel 2.000000, total vol 181389, vol(u>maxvel) 0, cell count 0
bounding box: xmin inf inf inf, xmax -inf -inf -infm 
step 198, time 0.198000, maxvel 2.000000, total vol 181389, vol(u>maxvel) 0, cell count 0
bounding box: xmin inf inf inf, xmax -inf -inf -infm 
step 199, time 0.199000, maxvel 2.000000, total vol 181389, vol(u>maxvel) 0, cell count 0
bounding box: xmin inf inf inf, xmax -inf -inf -infm 
step 200, time 0.200000, maxvel 2.000000, total vol 181389, vol(u>maxvel) 0, cell count 0
bounding box: xmin inf inf inf, xmax -inf -inf -infm 
step 201, time 0.201000, maxvel 2.000000, total vol 181389, vol(u>maxvel) 0, cell count 0
bounding box: xmin inf inf inf, xmax -inf -inf -infm 
step 202, time 0.202000, maxvel 2.000000, total vol 181389, vol(u>maxvel) 0, cell count 0
bounding box: xmin inf inf inf, xmax -inf -inf -infm 
step 203, time 0.203000, maxvel 2.000000, total vol 181389, vol(u>maxvel) 0, cell count 0
bounding box: xmin inf inf inf, xmax -inf -inf -infm 
step 204, time 0.204000, maxvel 2.000000, total vol 181389, vol(u>maxvel) 0, cell count 0
bounding box: xmin inf inf inf, xmax -inf -inf -infm 
step 205, time 0.205000, maxvel 2.000000, total vol 181389, vol(u>maxvel) 0, cell count 0
bounding box: xmin inf inf inf, xmax -inf -inf -infm 
step 206, time 0.206000, maxvel 2.000000, total vol 181389, vol(u>maxvel) 0, cell count 0
bounding box: xmin inf inf inf, xmax -inf -inf -infm 
step 207, time 0.207000, maxvel 2.000000, total vol 181389, vol(u>maxvel) 0, cell count 0
bounding box: xmin inf inf inf, xmax -inf -inf -infm 
step 208, time 0.208000, maxvel 2.000000, total vol 181389, vol(u>maxvel) 0, cell count 0
bounding box: xmin inf inf inf, xmax -inf -inf -infm 
step 209, time 0.209000, maxvel 2.000000, total vol 181389, vol(u>maxvel) 0, cell count 0
bounding box: xmin inf inf inf, xmax -inf -inf -infm 
step 210, time 0.210000, maxvel 2.000000, total vol 181389, vol(u>maxvel) 0, cell count 0
bounding box: xmin inf inf inf, xmax -inf -inf -infm 
step 211, time 0.211000, maxvel 2.000000, total vol 181389, vol(u>maxvel) 0, cell count 0
bounding box: xmin inf inf inf, xmax -inf -inf -infm 
step 212, time 0.212000, maxvel 2.000000, total vol 181389, vol(u>maxvel) 0, cell count 0
bounding box: xmin inf inf inf, xmax -inf -inf -infm 
step 213, time 0.213000, maxvel 2.000000, total vol 181389, vol(u>maxvel) 0, cell count 0
bounding box: xmin inf inf inf, xmax -inf -inf -infm 
step 214, time 0.214000, maxvel 2.000000, total vol 181389, vol(u>maxvel) 0, cell count 0
bounding box: xmin inf inf inf, xmax -inf -inf -infm 
step 215, time 0.215000, maxvel 2.000000, total vol 181389, vol(u>maxvel) 0, cell count 0
bounding box: xmin inf inf inf, xmax -inf -inf -infm 
step 216, time 0.216000, maxvel 2.000000, total vol 181389, vol(u>maxvel) 0, cell count 0
bounding box: xmin inf inf inf, xmax -inf -inf -infm 
step 217, time 0.217000, maxvel 2.000000, total vol 181389, vol(u>maxvel) 0, cell count 0
bounding box: xmin inf inf inf, xmax -inf -inf -infm 
step 218, time 0.218000, maxvel 2.000000, total vol 181389, vol(u>maxvel) 0, cell count 0
bounding box: xmin inf inf inf, xmax -inf -inf -infm 
step 219, time 0.219000, maxvel 2.000000, total vol 181389, vol(u>maxvel) 0, cell count 0
bounding box: xmin inf inf inf, xmax -inf -inf -infm 
step 220, time 0.220000, maxvel 2.000000, total vol 181389, vol(u>maxvel) 0, cell count 0
bounding box: xmin inf inf inf, xmax -inf -inf -infm 
step 221, time 0.221000, maxvel 2.000000, total vol 181389, vol(u>maxvel) 0, cell count 0
bounding box: xmin inf inf inf, xmax -inf -inf -infm 
step 222, time 0.222000, maxvel 2.000000, total vol 181389, vol(u>maxvel) 0, cell count 0
bounding box: xmin inf inf inf, xmax -inf -inf -infm 
step 223, time 0.223000, maxvel 2.000000, total vol 181389, vol(u>maxvel) 0, cell count 0
bounding box: xmin inf inf inf, xmax -inf -inf -infm 
step 224, time 0.224000, maxvel 2.000000, total vol 181389, vol(u>maxvel) 0, cell count 0
bounding box: xmin inf inf inf, xmax -inf -inf -infm 
step 225, time 0.225000, maxvel 2.000000, total vol 181389, vol(u>maxvel) 0, cell count 0
bounding box: xmin inf inf inf, xmax -inf -inf -infm 
step 226, time 0.226000, maxvel 2.000000, total vol 181389, vol(u>maxvel) 0, cell count 0
bounding box: xmin inf inf inf, xmax -inf -inf -infm 
step 227, time 0.227000, maxvel 2.000000, total vol 181389, vol(u>maxvel) 0, cell count 0
bounding box: xmin inf inf inf, xmax -inf -inf -infm 
step 228, time 0.228000, maxvel 2.000000, total vol 181389, vol(u>maxvel) 0, cell count 0
bounding box: xmin inf inf inf, xmax -inf -inf -infm 
step 229, time 0.229000, maxvel 2.000000, total vol 181389, vol(u>maxvel) 0, cell count 0
bounding box: xmin inf inf inf, xmax -inf -inf -infm 
step 230, time 0.230000, maxvel 2.000000, total vol 181389, vol(u>maxvel) 0, cell count 0
bounding box: xmin inf inf inf, xmax -inf -inf -infm 
step 231, time 0.231000, maxvel 2.000000, total vol 181389, vol(u>maxvel) 0, cell count 0
bounding box: xmin inf inf inf, xmax -inf -inf -infm 
step 232, time 0.232000, maxvel 2.000000, total vol 181389, vol(u>maxvel) 0, cell count 0
bounding box: xmin inf inf inf, xmax -inf -inf -infm 
step 233, time 0.233000, maxvel 2.000000, total vol 181389, vol(u>maxvel) 0, cell count 0
bounding box: xmin inf inf inf, xmax -inf -inf -infm 
step 234, time 0.234000, maxvel 2.000000, total vol 181389, vol(u>maxvel) 0, cell count 0
bounding box: xmin inf inf inf, xmax -inf -inf -infm 
step 235, time 0.235000, maxvel 2.000000, total vol 181389, vol(u>maxvel) 0, cell count 0
bounding box: xmin inf inf inf, xmax -inf -inf -infm 
step 236, time 0.236000, maxvel 2.000000, total vol 181389, vol(u>maxvel) 0, cell count 0
bounding box: xmin inf inf inf, xmax -inf -inf -infm 
step 237, time 0.237000, maxvel 2.000000, total vol 181389, vol(u>maxvel) 0, cell count 0
bounding box: xmin inf inf inf, xmax -inf -inf -infm 
step 238, time 0.238000, maxvel 2.000000, total vol 181389, vol(u>maxvel) 0, cell count 0
bounding box: xmin inf inf inf, xmax -inf -inf -infm 
step 239, time 0.239000, maxvel 2.000000, total vol 181389, vol(u>maxvel) 0, cell count 0
bounding box: xmin inf inf inf, xmax -inf -inf -infm 
step 240, time 0.240000, maxvel 2.000000, total vol 181389, vol(u>maxvel) 0, cell count 0
bounding box: xmin inf inf inf, xmax -inf -inf -infm 
step 241, time 0.241000, maxvel 2.000000, total vol 181389, vol(u>maxvel) 0, cell count 0
bounding box: xmin inf inf inf, xmax -inf -inf -infm 
step 242, time 0.242000, maxvel 2.000000, total vol 181389, vol(u>maxvel) 0, cell count 0
bounding box: xmin inf inf inf, xmax -inf -inf -infm 
step 243, time 0.243000, maxvel 2.000000, total vol 181389, vol(u>maxvel) 0, cell count 0
bounding box: xmin inf inf inf, xmax -inf -inf -infm 
step 244, time 0.244000, maxvel 2.000000, total vol 181389, vol(u>maxvel) 0, cell count 0
bounding box: xmin inf inf inf, xmax -inf -inf -infm 
step 245, time 0.245000, maxvel 2.000000, total vol 181389, vol(u>maxvel) 0, cell count 0
bounding box: xmin inf inf inf, xmax -inf -inf -infm 
step 246, time 0.246000, maxvel 2.000000, total vol 181389, vol(u>maxvel) 0, cell count 0
bounding box: xmin inf inf inf, xmax -inf -inf -infm 
step 247, time 0.247000, maxvel 2.000000, total vol 181389, vol(u>maxvel) 0, cell count 0
bounding box: xmin inf inf inf, xmax -inf -inf -infm 
step 248, time 0.248000, maxvel 2.000000, total vol 181389, vol(u>maxvel) 0, cell count 0
bounding box: xmin inf inf inf, xmax -inf -inf -infm 
step 249, time 0.249000, maxvel 2.000000, total vol 181389, vol(u>maxvel) 0, cell count 0
bounding box: xmin inf inf inf, xmax -inf -inf -infm 
step 250, time 0.250000, maxvel 2.000000, total vol 181389, vol(u>maxvel) 0, cell count 0
bounding box: xmin inf inf inf, xmax -inf -inf -infm 
step 251, time 0.251000, maxvel 2.000000, total vol 181389, vol(u>maxvel) 6.20023e-06, cell count 1
bounding box: xmin inf inf inf, xmax -inf -inf -infm 
step 252, time 0.252000, maxvel 2.000000, total vol 181389, vol(u>maxvel) 1.24171e-05, cell count 2
bounding box: xmin inf inf inf, xmax -inf -inf -infm 
step 253, time 0.253000, maxvel 2.000000, total vol 181389, vol(u>maxvel) 1.24171e-05, cell count 2
bounding box: xmin inf inf inf, xmax -inf -inf -infm 
step 254, time 0.254000, maxvel 2.000000, total vol 181389, vol(u>maxvel) 3.31222e-05, cell count 5
bounding box: xmin inf inf inf, xmax -inf -inf -infm 
step 255, time 0.255000, maxvel 2.000000, total vol 181389, vol(u>maxvel) 4.68785e-05, cell count 7
bounding box: xmin inf inf inf, xmax -inf -inf -infm 
step 256, time 0.256000, maxvel 2.000000, total vol 181389, vol(u>maxvel) 6.01625e-05, cell count 9
bounding box: xmin inf inf inf, xmax -inf -inf -infm 
step 257, time 0.257000, maxvel 2.000000, total vol 181389, vol(u>maxvel) 8.10089e-05, cell count 12
bounding box: xmin -12.1342 -1.24511 1.08727, xmax -12.1319 -1.24264 1.16184m 
step 258, time 0.258000, maxvel 2.000000, total vol 181389, vol(u>maxvel) 0.000157492, cell count 23
bounding box: xmin -12.1343 -1.24512 1.08727, xmax -12.1319 -1.24261 1.34833m 
step 259, time 0.259000, maxvel 2.000000, total vol 181389, vol(u>maxvel) 0.000181201, cell count 27
bounding box: xmin -12.1343 -1.24512 1.04999, xmax -12.1319 -1.24261 1.34833m 
step 260, time 0.260000, maxvel 2.000000, total vol 181389, vol(u>maxvel) 0.00020363, cell count 30
bounding box: xmin -12.1346 -1.24525 1.04999, xmax -12.1319 -1.24261 1.34833m 
step 261, time 0.261000, maxvel 2.000000, total vol 181389, vol(u>maxvel) 0.000246218, cell count 36
bounding box: xmin -12.1346 -1.24525 1.0127, xmax -12.1319 -1.24259 1.34835m 
step 262, time 0.262000, maxvel 2.000000, total vol 181389, vol(u>maxvel) 0.000257503, cell count 38
bounding box: xmin -12.1346 -1.24525 1.0127, xmax -12.1319 -1.24259 1.34835m 
step 263, time 0.263000, maxvel 2.000000, total vol 181389, vol(u>maxvel) 0.000272621, cell count 40
bounding box: xmin -12.1346 -1.24525 1.0127, xmax -12.1319 -1.24259 1.34835m 
step 264, time 0.264000, maxvel 2.000000, total vol 181389, vol(u>maxvel) 0.000302168, cell count 44
bounding box: xmin -12.1346 -1.24525 1.0127, xmax -12.1319 -1.24227 1.38559m 
step 265, time 0.265000, maxvel 2.000000, total vol 181389, vol(u>maxvel) 0.000336285, cell count 49
bounding box: xmin -12.1346 -1.28088 0.975417, xmax -12.0932 -1.24227 1.38559m 
step 266, time 0.266000, maxvel 2.000000, total vol 181389, vol(u>maxvel) 0.000403544, cell count 57
bounding box: xmin -12.1346 -1.28088 0.975417, xmax -12.0932 -1.24055 1.38561m 
step 267, time 0.267000, maxvel 2.000000, total vol 181389, vol(u>maxvel) 0.000432943, cell count 60
bounding box: xmin -12.1346 -1.28088 0.975417, xmax -12.0932 -1.24055 1.38561m 
step 268, time 0.268000, maxvel 2.000000, total vol 181389, vol(u>maxvel) 0.000461413, cell count 63
bounding box: xmin -12.1346 -1.28088 0.975416, xmax -12.0932 -1.24055 1.38561m 
step 269, time 0.269000, maxvel 2.000000, total vol 181389, vol(u>maxvel) 0.000476331, cell count 65
bounding box: xmin -12.1346 -1.28088 0.975416, xmax -12.0932 -1.24055 1.38561m 
step 270, time 0.270000, maxvel 2.000000, total vol 181389, vol(u>maxvel) 0.000506631, cell count 69
bounding box: xmin -12.1346 -1.28088 0.938132, xmax -12.0911 -1.24055 1.38561m 
step 271, time 0.271000, maxvel 2.000000, total vol 181389, vol(u>maxvel) 0.000595433, cell count 80
bounding box: xmin -12.137 -1.28205 0.938131, xmax -12.0911 -1.24055 1.6097m 
step 272, time 0.272000, maxvel 2.000000, total vol 181389, vol(u>maxvel) 0.000665542, cell count 88
bounding box: xmin -12.1371 -1.28205 0.938131, xmax -12.0911 -1.24055 1.6097m 
step 273, time 0.273000, maxvel 2.000000, total vol 181389, vol(u>maxvel) 0.000769844, cell count 98
bounding box: xmin -12.1371 -1.28507 0.938131, xmax -12.0903 -1.24054 1.68434m 
step 274, time 0.274000, maxvel 2.000000, total vol 181389, vol(u>maxvel) 0.000869536, cell count 110
bounding box: xmin -12.1374 -1.28507 0.938131, xmax -12.0903 -1.24021 1.68434m 
step 275, time 0.275000, maxvel 2.000000, total vol 181389, vol(u>maxvel) 0.000947873, cell count 119
bounding box: xmin -12.1374 -1.28507 0.900851, xmax -12.0903 -1.24021 1.68434m 
step 276, time 0.276000, maxvel 2.000000, total vol 181389, vol(u>maxvel) 0.000992539, cell count 124
bounding box: xmin -12.1374 -1.28507 0.900851, xmax -12.0903 -1.24021 1.68434m 
step 277, time 0.277000, maxvel 2.000000, total vol 181389, vol(u>maxvel) 0.00107266, cell count 133
bounding box: xmin -12.1374 -1.28507 0.863574, xmax -12.0903 -1.24021 1.68434m 
step 278, time 0.278000, maxvel 2.000000, total vol 181389, vol(u>maxvel) 0.00111437, cell count 138
bounding box: xmin -12.1374 -1.28507 0.863574, xmax -12.0903 -1.24021 1.68434m 
step 279, time 0.279000, maxvel 2.000000, total vol 181389, vol(u>maxvel) 0.00113617, cell count 141
bounding box: xmin -12.1374 -1.28507 0.863574, xmax -12.0903 -1.24021 1.68434m 
step 280, time 0.280000, maxvel 2.000000, total vol 181389, vol(u>maxvel) 0.00116805, cell count 144
bounding box: xmin -12.1374 -1.28507 0.863574, xmax -12.0903 -1.24021 1.68434m 
step 281, time 0.281000, maxvel 2.000000, total vol 181389, vol(u>maxvel) 0.00126712, cell count 156
bounding box: xmin -12.1374 -1.28507 0.863574, xmax -12.0903 -1.24021 1.68434m 
step 282, time 0.282000, maxvel 2.000000, total vol 181389, vol(u>maxvel) 0.00131701, cell count 162
bounding box: xmin -12.1374 -1.28507 0.863574, xmax -12.0903 -1.24021 1.68434m 
step 283, time 0.283000, maxvel 2.000000, total vol 181389, vol(u>maxvel) 0.00141733, cell count 173
bounding box: xmin -12.1374 -1.28507 0.86357, xmax -12.0903 -1.24021 1.68434m 
step 284, time 0.284000, maxvel 2.000000, total vol 181389, vol(u>maxvel) 0.0014643, cell count 178
bounding box: xmin -12.1374 -1.28538 0.826294, xmax -12.0903 -1.24021 1.68434m 
step 285, time 0.285000, maxvel 2.000000, total vol 181389, vol(u>maxvel) 0.00158626, cell count 189
bounding box: xmin -12.1374 -1.28538 0.826294, xmax -12.0903 -1.24021 1.68443m 
step 286, time 0.286000, maxvel 2.000000, total vol 181389, vol(u>maxvel) 0.00163839, cell count 195
bounding box: xmin -12.1374 -1.28538 0.826294, xmax -12.0903 -1.24021 1.68443m 
step 287, time 0.287000, maxvel 2.000000, total vol 181389, vol(u>maxvel) 0.00168532, cell count 200
bounding box: xmin -12.1374 -1.28538 0.826294, xmax -12.0903 -1.24021 1.68443m 
step 288, time 0.288000, maxvel 2.000000, total vol 181389, vol(u>maxvel) 0.00175234, cell count 208
bounding box: xmin -12.1374 -1.28538 0.82629, xmax -12.0903 -1.24021 1.68443m 
step 289, time 0.289000, maxvel 2.000000, total vol 181389, vol(u>maxvel) 0.00179056, cell count 212
bounding box: xmin -12.1374 -1.28538 0.82629, xmax -12.0903 -1.24021 1.68443m 
step 290, time 0.290000, maxvel 2.000000, total vol 181389, vol(u>maxvel) 0.00182828, cell count 216
bounding box: xmin -12.1374 -1.28538 0.82629, xmax -12.0903 -1.24021 1.68443m 
step 291, time 0.291000, maxvel 2.000000, total vol 181389, vol(u>maxvel) 0.00192223, cell count 223
bounding box: xmin -12.1374 -1.28538 0.82629, xmax -12.0903 -1.24021 1.68443m 
step 292, time 0.292000, maxvel 2.000000, total vol 181389, vol(u>maxvel) 0.00193402, cell count 225
bounding box: xmin -12.1374 -1.28538 0.82629, xmax -12.0903 -1.24021 1.68443m 
step 293, time 0.293000, maxvel 2.000000, total vol 181389, vol(u>maxvel) 0.00197266, cell count 229
bounding box: xmin -12.1374 -1.28538 0.82629, xmax -12.0893 -1.24021 1.68443m 
step 294, time 0.294000, maxvel 2.000000, total vol 181389, vol(u>maxvel) 0.00202635, cell count 236
bounding box: xmin -12.1374 -1.28538 0.82629, xmax -12.0893 -1.24021 1.68443m 
step 295, time 0.295000, maxvel 2.000000, total vol 181389, vol(u>maxvel) 0.00208741, cell count 242
bounding box: xmin -12.1374 -1.28538 0.788986, xmax -12.0893 -1.24021 1.68443m 
step 296, time 0.296000, maxvel 2.000000, total vol 181389, vol(u>maxvel) 0.00213772, cell count 248
bounding box: xmin -12.1374 -1.28538 0.788986, xmax -12.0893 -1.24021 1.68443m 
step 297, time 0.297000, maxvel 2.000000, total vol 181389, vol(u>maxvel) 0.00219473, cell count 252
bounding box: xmin -12.1374 -1.28538 0.788986, xmax -12.0893 -1.24021 1.75918m 
step 298, time 0.298000, maxvel 2.000000, total vol 181389, vol(u>maxvel) 0.00225747, cell count 260
bounding box: xmin -12.1374 -1.28538 0.788986, xmax -12.0893 -1.24021 1.75918m 
step 299, time 0.299000, maxvel 2.000000, total vol 181389, vol(u>maxvel) 0.00226979, cell count 262
bounding box: xmin -12.1374 -1.28538 0.788986, xmax -12.0893 -1.24021 1.75918m 
step 300, time 0.300000, maxvel 2.000000, total vol 181389, vol(u>maxvel) 0.00233939, cell count 268
bounding box: xmin -12.1374 -1.28691 0.788986, xmax -12.0893 -1.24021 1.75918m 
step 301, time 0.301000, maxvel 2.000000, total vol 181389, vol(u>maxvel) 0.00237797, cell count 272
bounding box: xmin -12.1374 -1.28691 0.788986, xmax -12.0893 -1.24021 1.75918m 
step 302, time 0.302000, maxvel 2.000000, total vol 181389, vol(u>maxvel) 0.00241887, cell count 277
bounding box: xmin -12.1374 -1.2901 0.788986, xmax -12.0893 -1.24021 1.75918m 
step 303, time 0.303000, maxvel 2.000000, total vol 181389, vol(u>maxvel) 0.00251572, cell count 285
bounding box: xmin -12.1374 -1.2901 0.788986, xmax -12.0893 -1.24021 1.75918m 
step 304, time 0.304000, maxvel 2.000000, total vol 181389, vol(u>maxvel) 0.00257269, cell count 290
bounding box: xmin -12.1374 -1.2901 0.788986, xmax -12.0893 -1.24021 1.75918m 
step 305, time 0.305000, maxvel 2.000000, total vol 181389, vol(u>maxvel) 0.00261881, cell count 295
bounding box: xmin -12.1374 -1.2901 0.788986, xmax -12.0893 -1.23883 1.75918m 
step 306, time 0.306000, maxvel 2.000000, total vol 181389, vol(u>maxvel) 0.00265608, cell count 299
bounding box: xmin -12.1374 -1.2901 0.788984, xmax -12.0893 -1.23883 1.75918m 
step 307, time 0.307000, maxvel 2.000000, total vol 181389, vol(u>maxvel) 0.00267108, cell count 301
bounding box: xmin -12.1374 -1.2901 0.788984, xmax -12.0893 -1.23883 1.75918m 
step 308, time 0.308000, maxvel 2.000000, total vol 181389, vol(u>maxvel) 0.00273636, cell count 307
bounding box: xmin -12.1374 -1.2901 0.788984, xmax -12.0893 -1.23883 1.75918m 
step 309, time 0.309000, maxvel 2.000000, total vol 181389, vol(u>maxvel) 0.00275836, cell count 309
bounding box: xmin -12.1374 -1.2901 0.788984, xmax -12.0893 -1.23883 1.75918m 
step 310, time 0.310000, maxvel 2.000000, total vol 181389, vol(u>maxvel) 0.00283622, cell count 317
bounding box: xmin -12.1374 -1.29549 0.788984, xmax -12.0519 -1.23883 1.75918m 
step 311, time 0.311000, maxvel 2.000000, total vol 181389, vol(u>maxvel) 0.00286369, cell count 319
bounding box: xmin -12.1374 -1.29549 0.788984, xmax -12.0519 -1.23883 1.75918m 
step 312, time 0.312000, maxvel 2.000000, total vol 181389, vol(u>maxvel) 0.00290082, cell count 322
bounding box: xmin -12.1374 -1.29549 0.788984, xmax -12.0519 -1.23883 1.75918m 
step 313, time 0.313000, maxvel 2.000000, total vol 181389, vol(u>maxvel) 0.00297135, cell count 327
bounding box: xmin -12.1374 -1.29549 0.788984, xmax -12.0519 -1.23883 1.75918m 
step 314, time 0.314000, maxvel 2.000000, total vol 181389, vol(u>maxvel) 0.00298949, cell count 329
bounding box: xmin -12.1374 -1.30225 0.788984, xmax -12.0519 -1.23883 1.75918m 
step 315, time 0.315000, maxvel 2.000000, total vol 181389, vol(u>maxvel) 0.0030472, cell count 335
bounding box: xmin -12.1374 -1.30225 0.788984, xmax -12.0519 -1.23883 1.75918m 
step 316, time 0.316000, maxvel 2.000000, total vol 181389, vol(u>maxvel) 0.00306121, cell count 337
bounding box: xmin -12.1374 -1.30225 0.788984, xmax -12.0519 -1.23883 1.75918m 
step 317, time 0.317000, maxvel 2.000000, total vol 181389, vol(u>maxvel) 0.0031262, cell count 343
bounding box: xmin -12.1374 -1.30225 0.788984, xmax -12.0519 -1.23883 1.75918m 
step 318, time 0.318000, maxvel 2.000000, total vol 181389, vol(u>maxvel) 0.00313234, cell count 344
bounding box: xmin -12.1374 -1.30225 0.788984, xmax -12.0519 -1.23883 1.75918m 
step 319, time 0.319000, maxvel 2.000000, total vol 181389, vol(u>maxvel) 0.00315989, cell count 347
bounding box: xmin -12.1386 -1.30225 0.751532, xmax -12.0519 -1.23883 1.75918m 
step 320, time 0.320000, maxvel 2.000000, total vol 181389, vol(u>maxvel) 0.00319189, cell count 351
bounding box: xmin -12.1386 -1.30225 0.751532, xmax -12.0519 -1.23883 1.75918m 
step 321, time 0.321000, maxvel 2.000000, total vol 181389, vol(u>maxvel) 0.00326735, cell count 357
bounding box: xmin -12.1386 -1.30225 0.751532, xmax -12.0519 -1.23883 1.75918m 
step 322, time 0.322000, maxvel 2.000000, total vol 181389, vol(u>maxvel) 0.00329574, cell count 359
bounding box: xmin -12.1386 -1.30225 0.751532, xmax -12.0519 -1.23883 1.75918m 
step 323, time 0.323000, maxvel 2.000000, total vol 181389, vol(u>maxvel) 0.00332443, cell count 362
bounding box: xmin -12.1386 -1.30225 0.751532, xmax -12.0519 -1.23883 1.75918m 
step 324, time 0.324000, maxvel 2.000000, total vol 181389, vol(u>maxvel) 0.00336317, cell count 367
bounding box: xmin -12.1386 -1.30225 0.490245, xmax -12.0519 -1.23883 1.75918m 
step 325, time 0.325000, maxvel 2.000000, total vol 181389, vol(u>maxvel) 0.00342733, cell count 375
bounding box: xmin -12.1386 -1.30225 0.490245, xmax -12.0519 -1.2385 1.75918m 
step 326, time 0.326000, maxvel 2.000000, total vol 181389, vol(u>maxvel) 0.00346656, cell count 379
bounding box: xmin -12.1386 -1.30225 0.490245, xmax -12.0519 -1.2385 1.75918m 
step 327, time 0.327000, maxvel 2.000000, total vol 181389, vol(u>maxvel) 0.00350697, cell count 384
bounding box: xmin -12.1386 -1.30225 0.490245, xmax -12.0519 -1.2385 1.75918m 
step 328, time 0.328000, maxvel 2.000000, total vol 181389, vol(u>maxvel) 0.00355781, cell count 389
bounding box: xmin -12.1386 -1.30225 0.490245, xmax -12.0519 -1.2385 1.75918m 
step 329, time 0.329000, maxvel 2.000000, total vol 181389, vol(u>maxvel) 0.00359129, cell count 393
bounding box: xmin -12.1386 -1.30556 0.490245, xmax -12.0519 -1.2385 1.75918m 
step 330, time 0.330000, maxvel 2.000000, total vol 181389, vol(u>maxvel) 0.0036403, cell count 398
bounding box: xmin -12.1386 -1.30556 0.490245, xmax -12.0519 -1.2385 1.75918m 
step 331, time 0.331000, maxvel 2.000000, total vol 181389, vol(u>maxvel) 0.00368783, cell count 404
bounding box: xmin -12.1386 -1.30556 0.490245, xmax -12.0519 -1.2385 1.75918m 
step 332, time 0.332000, maxvel 2.000000, total vol 181389, vol(u>maxvel) 0.00371907, cell count 408
bounding box: xmin -12.1386 -1.30556 0.490245, xmax -12.0519 -1.2385 1.75918m 
step 333, time 0.333000, maxvel 2.000000, total vol 181389, vol(u>maxvel) 0.00373161, cell count 410
bounding box: xmin -12.1386 -1.30556 0.490245, xmax -12.0519 -1.2385 1.75918m 
step 334, time 0.334000, maxvel 2.000000, total vol 181389, vol(u>maxvel) 0.00377016, cell count 415
bounding box: xmin -12.1404 -1.30556 0.490245, xmax -12.0519 -1.2385 1.75918m 
step 335, time 0.335000, maxvel 2.000000, total vol 181389, vol(u>maxvel) 0.00380735, cell count 420
bounding box: xmin -12.1404 -1.30592 0.490245, xmax -12.0519 -1.2385 1.75918m 
step 336, time 0.336000, maxvel 2.000000, total vol 181389, vol(u>maxvel) 0.00386865, cell count 426
bounding box: xmin -12.1404 -1.30592 0.490245, xmax -12.0519 -1.2385 1.75918m 
step 337, time 0.337000, maxvel 2.000000, total vol 181389, vol(u>maxvel) 0.00392964, cell count 434
bounding box: xmin -12.1404 -1.30592 0.490245, xmax -12.0519 -1.2385 1.75925m 
step 338, time 0.338000, maxvel 2.000000, total vol 181389, vol(u>maxvel) 0.00395755, cell count 437
bounding box: xmin -12.1404 -1.30592 0.490245, xmax -12.0519 -1.2385 1.75925m 
step 339, time 0.339000, maxvel 2.000000, total vol 181389, vol(u>maxvel) 0.00399888, cell count 442
bounding box: xmin -12.1404 -1.30592 0.490245, xmax -12.0519 -1.2385 1.75925m 
step 340, time 0.340000, maxvel 2.000000, total vol 181389, vol(u>maxvel) 0.00403877, cell count 445
bounding box: xmin -12.1404 -1.30592 0.490245, xmax -12.0519 -1.2385 1.75925m 
step 341, time 0.341000, maxvel 2.000000, total vol 181389, vol(u>maxvel) 0.00408508, cell count 450
bounding box: xmin -12.1408 -1.30592 0.490245, xmax -12.0519 -1.2385 1.75925m 
step 342, time 0.342000, maxvel 2.000000, total vol 181389, vol(u>maxvel) 0.00412085, cell count 455
bounding box: xmin -12.1408 -1.30592 0.490245, xmax -12.0519 -1.2385 1.75925m 
step 343, time 0.343000, maxvel 2.000000, total vol 181389, vol(u>maxvel) 0.00418572, cell count 462
bounding box: xmin -12.1408 -1.30592 0.490245, xmax -12.0519 -1.2385 1.75925m 
step 344, time 0.344000, maxvel 2.000000, total vol 181389, vol(u>maxvel) 0.00422593, cell count 467
bounding box: xmin -12.1408 -1.30592 0.490245, xmax -12.0519 -1.2385 1.75925m 
step 345, time 0.345000, maxvel 2.000000, total vol 181389, vol(u>maxvel) 0.00427185, cell count 471
bounding box: xmin -12.1408 -1.30592 0.490245, xmax -12.0519 -1.2385 1.75925m 
step 346, time 0.346000, maxvel 2.000000, total vol 181389, vol(u>maxvel) 0.00430895, cell count 475
bounding box: xmin -12.1408 -1.30592 0.490245, xmax -12.0519 -1.2385 1.75925m 
step 347, time 0.347000, maxvel 2.000000, total vol 181389, vol(u>maxvel) 0.00435698, cell count 480
bounding box: xmin -12.1408 -1.30592 0.490245, xmax -12.0519 -1.2385 1.75925m 
step 348, time 0.348000, maxvel 2.000000, total vol 181389, vol(u>maxvel) 0.00438991, cell count 483
bounding box: xmin -12.1408 -1.30592 0.452901, xmax -12.0519 -1.2385 1.75925m 
step 349, time 0.349000, maxvel 2.000000, total vol 181389, vol(u>maxvel) 0.0044205, cell count 488
bounding box: xmin -12.1408 -1.30592 0.452901, xmax -12.0519 -1.2385 1.75925m 
step 350, time 0.350000, maxvel 2.000000, total vol 181389, vol(u>maxvel) 0.00443929, cell count 490
bounding box: xmin -12.1408 -1.30592 0.452901, xmax -12.0519 -1.2385 1.75925m 
step 351, time 0.351000, maxvel 2.000000, total vol 181389, vol(u>maxvel) 0.00445061, cell count 491
bounding box: xmin -12.1408 -1.30592 0.452901, xmax -12.0519 -1.2385 1.75925m 
step 352, time 0.352000, maxvel 2.000000, total vol 181389, vol(u>maxvel) 0.00456129, cell count 501
bounding box: xmin -12.1408 -1.30592 0.452901, xmax -12.0509 -1.2385 1.75925m 
step 353, time 0.353000, maxvel 2.000000, total vol 181389, vol(u>maxvel) 0.00458131, cell count 504
bounding box: xmin -12.1408 -1.30592 0.452901, xmax -12.0509 -1.2385 1.75925m 
step 354, time 0.354000, maxvel 2.000000, total vol 181389, vol(u>maxvel) 0.00462826, cell count 509
bounding box: xmin -12.1408 -1.30592 0.452901, xmax -12.0509 -1.2385 1.75925m 
step 355, time 0.355000, maxvel 2.000000, total vol 181389, vol(u>maxvel) 0.00465875, cell count 513
bounding box: xmin -12.1408 -1.30592 0.452901, xmax -12.0509 -1.2385 1.75925m 
step 356, time 0.356000, maxvel 2.000000, total vol 181389, vol(u>maxvel) 0.00468602, cell count 516
bounding box: xmin -12.1408 -1.30592 0.452901, xmax -12.0509 -1.2385 1.75925m 
step 357, time 0.357000, maxvel 2.000000, total vol 181389, vol(u>maxvel) 0.00470832, cell count 519
bounding box: xmin -12.1408 -1.30592 0.452901, xmax -12.0509 -1.2385 1.75925m 
step 358, time 0.358000, maxvel 2.000000, total vol 181389, vol(u>maxvel) 0.00474781, cell count 522
bounding box: xmin -12.1408 -1.30592 0.452901, xmax -12.0509 -1.2385 1.75925m 
step 359, time 0.359000, maxvel 2.000000, total vol 181389, vol(u>maxvel) 0.00478639, cell count 526
bounding box: xmin -12.1408 -1.30592 0.452901, xmax -12.0509 -1.2385 1.75925m 
step 360, time 0.360000, maxvel 2.000000, total vol 181389, vol(u>maxvel) 0.00485559, cell count 531
bounding box: xmin -12.1408 -1.30592 0.452901, xmax -12.0509 -1.2385 1.75925m 
step 361, time 0.361000, maxvel 2.000000, total vol 181389, vol(u>maxvel) 0.00487837, cell count 535
bounding box: xmin -12.1408 -1.30592 0.452901, xmax -12.0509 -1.2385 1.75925m 
step 362, time 0.362000, maxvel 2.000000, total vol 181389, vol(u>maxvel) 0.00488391, cell count 536
bounding box: xmin -12.1408 -1.30592 0.452901, xmax -12.0509 -1.2385 1.75925m 
step 363, time 0.363000, maxvel 2.000000, total vol 181389, vol(u>maxvel) 0.00489505, cell count 537
bounding box: xmin -12.1408 -1.30955 0.452901, xmax -12.0509 -1.2385 1.75925m 
step 364, time 0.364000, maxvel 2.000000, total vol 181389, vol(u>maxvel) 0.0049318, cell count 542
bounding box: xmin -12.1408 -1.30955 0.452901, xmax -12.0509 -1.2385 1.75925m 
step 365, time 0.365000, maxvel 2.000000, total vol 181389, vol(u>maxvel) 0.0049735, cell count 547
bounding box: xmin -12.1408 -1.30955 0.452901, xmax -12.0509 -1.2385 1.75925m 
step 366, time 0.366000, maxvel 2.000000, total vol 181389, vol(u>maxvel) 0.0049803, cell count 548
bounding box: xmin -12.1408 -1.30955 0.452901, xmax -12.0509 -1.2385 1.75925m 
step 367, time 0.367000, maxvel 2.000000, total vol 181389, vol(u>maxvel) 0.0049803, cell count 548
bounding box: xmin -12.1408 -1.30955 0.452901, xmax -12.0509 -1.2385 1.75925m 
step 368, time 0.368000, maxvel 2.000000, total vol 181389, vol(u>maxvel) 0.00499072, cell count 550
bounding box: xmin -12.1408 -1.30955 0.452901, xmax -12.0509 -1.2385 1.75925m 
step 369, time 0.369000, maxvel 2.000000, total vol 181389, vol(u>maxvel) 0.00500851, cell count 553
bounding box: xmin -12.1408 -1.30955 0.452901, xmax -12.0509 -1.2385 1.75925m 
step 370, time 0.370000, maxvel 2.000000, total vol 181389, vol(u>maxvel) 0.00507024, cell count 559
bounding box: xmin -12.1408 -1.30955 0.452901, xmax -12.0509 -1.2385 1.75925m 
step 371, time 0.371000, maxvel 2.000000, total vol 181389, vol(u>maxvel) 0.00513994, cell count 568
bounding box: xmin -12.1408 -1.31107 0.452901, xmax -12.0509 -1.2385 1.75925m 
step 372, time 0.372000, maxvel 2.000000, total vol 181389, vol(u>maxvel) 0.00517274, cell count 572
bounding box: xmin -12.1408 -1.31107 0.452901, xmax -12.0509 -1.2385 1.75925m 
step 373, time 0.373000, maxvel 2.000000, total vol 181389, vol(u>maxvel) 0.00519578, cell count 575
bounding box: xmin -12.1408 -1.31107 0.452901, xmax -12.0509 -1.2385 1.75925m 
step 374, time 0.374000, maxvel 2.000000, total vol 181389, vol(u>maxvel) 0.00520656, cell count 576
bounding box: xmin -12.1408 -1.31107 0.452901, xmax -12.0509 -1.2385 1.75925m 
step 375, time 0.375000, maxvel 2.000000, total vol 181389, vol(u>maxvel) 0.00523671, cell count 579
bounding box: xmin -12.1408 -1.31107 0.452901, xmax -12.0509 -1.2385 1.75925m 
step 376, time 0.376000, maxvel 2.000000, total vol 181389, vol(u>maxvel) 0.00528505, cell count 586
bounding box: xmin -12.1408 -1.31107 0.452901, xmax -12.0509 -1.2385 1.75925m 
step 377, time 0.377000, maxvel 2.000000, total vol 181389, vol(u>maxvel) 0.00534752, cell count 592
bounding box: xmin -12.1408 -1.31107 0.452901, xmax -12.0509 -1.2385 1.75925m 
step 378, time 0.378000, maxvel 2.000000, total vol 181389, vol(u>maxvel) 0.00537348, cell count 596
bounding box: xmin -12.1408 -1.31107 0.452901, xmax -12.0509 -1.2385 1.75925m 
step 379, time 0.379000, maxvel 2.000000, total vol 181389, vol(u>maxvel) 0.00540352, cell count 601
bounding box: xmin -12.1408 -1.31107 0.452901, xmax -12.0509 -1.2385 1.75925m 
step 380, time 0.380000, maxvel 2.000000, total vol 181389, vol(u>maxvel) 0.00542865, cell count 604
bounding box: xmin -12.1408 -1.31107 0.452901, xmax -12.0509 -1.2385 1.75925m 
step 381, time 0.381000, maxvel 2.000000, total vol 181389, vol(u>maxvel) 0.00546557, cell count 609
bounding box: xmin -12.1408 -1.31107 0.452901, xmax -12.0509 -1.2385 1.75925m 
step 382, time 0.382000, maxvel 2.000000, total vol 181389, vol(u>maxvel) 0.00548399, cell count 612
bounding box: xmin -12.1408 -1.31107 0.452901, xmax -12.0509 -1.2385 1.75925m 
step 383, time 0.383000, maxvel 2.000000, total vol 181389, vol(u>maxvel) 0.00549944, cell count 614
bounding box: xmin -12.1408 -1.31107 0.452901, xmax -12.0509 -1.2385 1.75925m 
step 384, time 0.384000, maxvel 2.000000, total vol 181389, vol(u>maxvel) 0.00554684, cell count 619
bounding box: xmin -12.1408 -1.31113 0.415555, xmax -12.0509 -1.2385 1.75925m 
step 385, time 0.385000, maxvel 2.000000, total vol 181389, vol(u>maxvel) 0.00555799, cell count 621
bounding box: xmin -12.1408 -1.31113 0.415555, xmax -12.0509 -1.2385 1.75925m 
step 386, time 0.386000, maxvel 2.000000, total vol 181389, vol(u>maxvel) 0.00558124, cell count 624
bounding box: xmin -12.1408 -1.31113 0.415555, xmax -12.0509 -1.2385 1.75925m 
step 387, time 0.387000, maxvel 2.000000, total vol 181389, vol(u>maxvel) 0.0055888, cell count 625
bounding box: xmin -12.1408 -1.31113 0.415555, xmax -12.0509 -1.2385 1.75925m 
step 388, time 0.388000, maxvel 2.000000, total vol 181389, vol(u>maxvel) 0.00560515, cell count 629
bounding box: xmin -12.1408 -1.31113 0.415555, xmax -12.0509 -1.2385 1.75925m 
step 389, time 0.389000, maxvel 2.000000, total vol 181389, vol(u>maxvel) 0.00561905, cell count 631
bounding box: xmin -12.1408 -1.31113 0.415555, xmax -12.0509 -1.2385 1.75925m 
step 390, time 0.390000, maxvel 2.000000, total vol 181389, vol(u>maxvel) 0.00566821, cell count 637
bounding box: xmin -12.1408 -1.31113 0.415555, xmax -12.0509 -1.2385 1.75925m 
step 391, time 0.391000, maxvel 2.000000, total vol 181389, vol(u>maxvel) 0.00567406, cell count 638
bounding box: xmin -12.1408 -1.31113 0.415555, xmax -12.0502 -1.2385 1.75925m 
step 392, time 0.392000, maxvel 2.000000, total vol 181389, vol(u>maxvel) 0.0056977, cell count 641
bounding box: xmin -12.1408 -1.31113 0.415555, xmax -12.0502 -1.2385 1.75925m 
step 393, time 0.393000, maxvel 2.000000, total vol 181389, vol(u>maxvel) 0.00572253, cell count 645
bounding box: xmin -12.1408 -1.31113 0.415555, xmax -12.0502 -1.2385 1.75925m 
step 394, time 0.394000, maxvel 2.000000, total vol 181389, vol(u>maxvel) 0.00574132, cell count 647
bounding box: xmin -12.1408 -1.31113 0.415555, xmax -12.0502 -1.2385 1.75925m 
step 395, time 0.395000, maxvel 2.000000, total vol 181389, vol(u>maxvel) 0.00577639, cell count 651
bounding box: xmin -12.1408 -1.31113 0.415555, xmax -12.0502 -1.2385 1.75925m 
step 396, time 0.396000, maxvel 2.000000, total vol 181389, vol(u>maxvel) 0.00579716, cell count 652
bounding box: xmin -12.1408 -1.31113 0.415555, xmax -12.0502 -1.2385 1.75925m 
step 397, time 0.397000, maxvel 2.000000, total vol 181389, vol(u>maxvel) 0.00583372, cell count 657
bounding box: xmin -12.1408 -1.31441 0.415555, xmax -12.0502 -1.2385 1.75925m 
step 398, time 0.398000, maxvel 2.000000, total vol 181389, vol(u>maxvel) 0.00587025, cell count 660
bounding box: xmin -12.1408 -1.31441 0.415555, xmax -12.0502 -1.2385 1.75925m 
step 399, time 0.399000, maxvel 2.000000, total vol 181389, vol(u>maxvel) 0.00587025, cell count 660
bounding box: xmin -12.1408 -1.31441 0.415555, xmax -12.0502 -1.2385 1.75925m 
step 400, time 0.400000, maxvel 2.000000, total vol 181389, vol(u>maxvel) 0.00593837, cell count 666
bounding box: xmin -12.1408 -1.31441 0.415555, xmax -12.0502 -1.2385 1.75925m 
step 401, time 0.401000, maxvel 2.000000, total vol 181389, vol(u>maxvel) 0.00595144, cell count 668
bounding box: xmin -12.1408 -1.31441 0.415555, xmax -12.0502 -1.2385 1.75925m 
step 402, time 0.402000, maxvel 2.000000, total vol 181389, vol(u>maxvel) 0.00596966, cell count 671
bounding box: xmin -12.1408 -1.31441 0.415555, xmax -12.0502 -1.2385 1.75925m 
step 403, time 0.403000, maxvel 2.000000, total vol 181389, vol(u>maxvel) 0.00598619, cell count 673
bounding box: xmin -12.1408 -1.31441 0.415555, xmax -12.0502 -1.2385 1.75925m 
step 404, time 0.404000, maxvel 2.000000, total vol 181389, vol(u>maxvel) 0.00599793, cell count 675
bounding box: xmin -12.1408 -1.31441 0.415555, xmax -12.0502 -1.2385 1.75925m 
step 405, time 0.405000, maxvel 2.000000, total vol 181389, vol(u>maxvel) 0.00599793, cell count 675
bounding box: xmin -12.1408 -1.31441 0.415555, xmax -12.0502 -1.2385 1.75925m 
step 406, time 0.406000, maxvel 2.000000, total vol 181389, vol(u>maxvel) 0.00600298, cell count 676
bounding box: xmin -12.1408 -1.31441 0.415555, xmax -12.0502 -1.2385 1.75925m 
step 407, time 0.407000, maxvel 2.000000, total vol 181389, vol(u>maxvel) 0.00602591, cell count 680
bounding box: xmin -12.1408 -1.31441 0.415555, xmax -12.0502 -1.2385 1.75925m 
step 408, time 0.408000, maxvel 2.000000, total vol 181389, vol(u>maxvel) 0.00604662, cell count 681
bounding box: xmin -12.1408 -1.31441 0.415452, xmax -12.0502 -1.2385 1.75925m 
step 409, time 0.409000, maxvel 2.000000, total vol 181389, vol(u>maxvel) 0.00604662, cell count 681
bounding box: xmin -12.1408 -1.31441 0.415452, xmax -12.0502 -1.2385 1.75925m 
step 410, time 0.410000, maxvel 2.000000, total vol 181389, vol(u>maxvel) 0.00605723, cell count 682
bounding box: xmin -12.1408 -1.31441 0.415452, xmax -12.0502 -1.2385 1.75925m 
step 411, time 0.411000, maxvel 2.000000, total vol 181389, vol(u>maxvel) 0.00606575, cell count 683
bounding box: xmin -12.1408 -1.31441 0.415452, xmax -12.0502 -1.2385 1.75925m 
step 412, time 0.412000, maxvel 2.000000, total vol 181389, vol(u>maxvel) 0.0060754, cell count 685
bounding box: xmin -12.1408 -1.31441 0.415452, xmax -12.0502 -1.2385 1.75925m 
step 413, time 0.413000, maxvel 2.000000, total vol 181389, vol(u>maxvel) 0.0060754, cell count 685
bounding box: xmin -12.1408 -1.31441 0.415452, xmax -12.0502 -1.2385 1.75925m 
step 414, time 0.414000, maxvel 2.000000, total vol 181389, vol(u>maxvel) 0.00609885, cell count 688
bounding box: xmin -12.1408 -1.31441 0.415452, xmax -12.0502 -1.2385 1.75925m 
step 415, time 0.415000, maxvel 2.000000, total vol 181389, vol(u>maxvel) 0.00610735, cell count 689
bounding box: xmin -12.1408 -1.31441 0.415452, xmax -12.0502 -1.2385 1.75925m 
step 416, time 0.416000, maxvel 2.000000, total vol 181389, vol(u>maxvel) 0.00613127, cell count 691
bounding box: xmin -12.1408 -1.31441 0.415452, xmax -12.0502 -1.2385 1.75925m 
step 417, time 0.417000, maxvel 2.000000, total vol 181389, vol(u>maxvel) 0.00615082, cell count 694
bounding box: xmin -12.1408 -1.31441 0.415452, xmax -12.0502 -1.2385 1.75925m 
step 418, time 0.418000, maxvel 2.000000, total vol 181389, vol(u>maxvel) 0.00615082, cell count 694
bounding box: xmin -12.1408 -1.31441 0.415452, xmax -12.0502 -1.2385 1.75925m 
step 419, time 0.419000, maxvel 2.000000, total vol 181389, vol(u>maxvel) 0.00615082, cell count 694
bounding box: xmin -12.1408 -1.31441 0.415452, xmax -12.0502 -1.2385 1.75925m 
step 420, time 0.420000, maxvel 2.000000, total vol 181389, vol(u>maxvel) 0.00616064, cell count 695
bounding box: xmin -12.1408 -1.31441 0.415452, xmax -12.0502 -1.2385 1.75925m 
step 421, time 0.421000, maxvel 2.000000, total vol 181389, vol(u>maxvel) 0.0061931, cell count 697
bounding box: xmin -12.1408 -1.31441 0.415452, xmax -12.0502 -1.2385 1.75925m 
step 422, time 0.422000, maxvel 2.000000, total vol 181389, vol(u>maxvel) 0.00620602, cell count 698
bounding box: xmin -12.1408 -1.31441 0.378423, xmax -12.0502 -1.2385 1.75925m 
step 423, time 0.423000, maxvel 2.000000, total vol 181389, vol(u>maxvel) 0.00620602, cell count 698
bounding box: xmin -12.1408 -1.31441 0.378423, xmax -12.0502 -1.2385 1.75925m 
step 424, time 0.424000, maxvel 2.000000, total vol 181389, vol(u>maxvel) 0.00624246, cell count 702
bounding box: xmin -12.1408 -1.31441 0.378423, xmax -12.0502 -1.2385 1.75925m 
step 425, time 0.425000, maxvel 2.000000, total vol 181389, vol(u>maxvel) 0.00626054, cell count 706
bounding box: xmin -12.1408 -1.31441 0.378423, xmax -12.0502 -1.2385 1.75925m 
step 426, time 0.426000, maxvel 2.000000, total vol 181389, vol(u>maxvel) 0.00626054, cell count 706
bounding box: xmin -12.1408 -1.31441 0.378423, xmax -12.0502 -1.2385 1.75925m 
step 427, time 0.427000, maxvel 2.000000, total vol 181389, vol(u>maxvel) 0.00628294, cell count 709
bounding box: xmin -12.1408 -1.31441 0.378423, xmax -12.0502 -1.2385 1.75925m 
step 428, time 0.428000, maxvel 2.000000, total vol 181389, vol(u>maxvel) 0.00629925, cell count 711
bounding box: xmin -12.1408 -1.31441 0.378423, xmax -12.0502 -1.2385 1.75925m 
step 429, time 0.429000, maxvel 2.000000, total vol 181389, vol(u>maxvel) 0.00633465, cell count 714
bounding box: xmin -12.1408 -1.31441 0.378423, xmax -12.0502 -1.2385 1.79578m 
step 430, time 0.430000, maxvel 2.000000, total vol 181389, vol(u>maxvel) 0.00635749, cell count 717
bounding box: xmin -12.1408 -1.31441 0.378423, xmax -12.0502 -1.2385 1.79578m 
step 431, time 0.431000, maxvel 2.000000, total vol 181389, vol(u>maxvel) 0.00635749, cell count 717
bounding box: xmin -12.1408 -1.31441 0.378423, xmax -12.0502 -1.2385 1.79578m 
step 432, time 0.432000, maxvel 2.000000, total vol 181389, vol(u>maxvel) 0.00638025, cell count 719
bounding box: xmin -12.1408 -1.31441 0.378423, xmax -12.0502 -1.2385 1.79578m 
step 433, time 0.433000, maxvel 2.000000, total vol 181389, vol(u>maxvel) 0.00638838, cell count 720
bounding box: xmin -12.1408 -1.31441 0.378423, xmax -12.0502 -1.2385 1.79578m 
step 434, time 0.434000, maxvel 2.000000, total vol 181389, vol(u>maxvel) 0.0064136, cell count 722
bounding box: xmin -12.1408 -1.31441 0.378423, xmax -12.0502 -1.2385 1.79578m 
step 435, time 0.435000, maxvel 2.000000, total vol 181389, vol(u>maxvel) 0.00641977, cell count 723
bounding box: xmin -12.1408 -1.31441 0.378423, xmax -12.0502 -1.2385 1.79578m 
step 436, time 0.436000, maxvel 2.000000, total vol 181389, vol(u>maxvel) 0.00642917, cell count 724
bounding box: xmin -12.1408 -1.31441 0.378423, xmax -12.0502 -1.2385 1.79578m 
step 437, time 0.437000, maxvel 2.000000, total vol 181389, vol(u>maxvel) 0.00643812, cell count 725
bounding box: xmin -12.1408 -1.31441 0.378423, xmax -12.0502 -1.2385 1.79578m 
step 438, time 0.438000, maxvel 2.000000, total vol 181389, vol(u>maxvel) 0.00645334, cell count 728
bounding box: xmin -12.1408 -1.31441 0.378423, xmax -12.0502 -1.2385 1.79578m 
step 439, time 0.439000, maxvel 2.000000, total vol 181389, vol(u>maxvel) 0.00646091, cell count 729
bounding box: xmin -12.1408 -1.31441 0.378423, xmax -12.0502 -1.2385 1.79578m 
step 440, time 0.440000, maxvel 2.000000, total vol 181389, vol(u>maxvel) 0.00652437, cell count 730
bounding box: xmin -12.1408 -1.31441 0.378423, xmax -12.0502 -1.2385 1.79578m 
step 441, time 0.441000, maxvel 2.000000, total vol 181389, vol(u>maxvel) 0.00652437, cell count 730
bounding box: xmin -12.1408 -1.31441 0.378423, xmax -12.0502 -1.2385 1.79578m 
step 442, time 0.442000, maxvel 2.000000, total vol 181389, vol(u>maxvel) 0.00653707, cell count 732
bounding box: xmin -12.1408 -1.31441 0.378423, xmax -12.0502 -1.2385 1.79578m 
step 443, time 0.443000, maxvel 2.000000, total vol 181389, vol(u>maxvel) 0.00654082, cell count 733
bounding box: xmin -12.1408 -1.31441 0.378423, xmax -12.0502 -1.2385 1.79578m 
step 444, time 0.444000, maxvel 2.000000, total vol 181389, vol(u>maxvel) 0.00654082, cell count 733
bounding box: xmin -12.1408 -1.31441 0.378423, xmax -12.0502 -1.2385 1.79578m 
step 445, time 0.445000, maxvel 2.000000, total vol 181389, vol(u>maxvel) 0.00655217, cell count 735
bounding box: xmin -12.1408 -1.31441 0.378423, xmax -12.0502 -1.2385 1.79578m 
step 446, time 0.446000, maxvel 2.000000, total vol 181389, vol(u>maxvel) 0.00657143, cell count 737
bounding box: xmin -12.1408 -1.31441 0.378423, xmax -12.0502 -1.2385 1.79578m 
step 447, time 0.447000, maxvel 2.000000, total vol 181389, vol(u>maxvel) 0.00657519, cell count 738
bounding box: xmin -12.1408 -1.31441 0.378423, xmax -12.0502 -1.2385 1.79578m 
step 448, time 0.448000, maxvel 2.000000, total vol 181389, vol(u>maxvel) 0.00658757, cell count 740
bounding box: xmin -12.1408 -1.31441 0.378423, xmax -12.0502 -1.2385 1.79578m 
step 449, time 0.449000, maxvel 2.000000, total vol 181389, vol(u>maxvel) 0.00658757, cell count 740
bounding box: xmin -12.1408 -1.31441 0.378423, xmax -12.0502 -1.2385 1.79578m 
step 450, time 0.450000, maxvel 2.000000, total vol 181389, vol(u>maxvel) 0.00663493, cell count 743
bounding box: xmin -12.1408 -1.31441 0.378423, xmax -12.0502 -1.2385 1.79578m 
step 451, time 0.451000, maxvel 2.000000, total vol 181389, vol(u>maxvel) 0.00663948, cell count 744
bounding box: xmin -12.1408 -1.31441 0.378423, xmax -12.0502 -1.2385 1.79578m 
step 452, time 0.452000, maxvel 2.000000, total vol 181389, vol(u>maxvel) 0.0066824, cell count 747
bounding box: xmin -12.1408 -1.31441 0.378423, xmax -12.0502 -1.2385 1.79578m 
step 453, time 0.453000, maxvel 2.000000, total vol 181389, vol(u>maxvel) 0.0066824, cell count 747
bounding box: xmin -12.1408 -1.31441 0.378423, xmax -12.0502 -1.2385 1.79578m 
step 454, time 0.454000, maxvel 2.000000, total vol 181389, vol(u>maxvel) 0.0066824, cell count 747
bounding box: xmin -12.1408 -1.31441 0.378423, xmax -12.0502 -1.2385 1.79578m 
step 455, time 0.455000, maxvel 2.000000, total vol 181389, vol(u>maxvel) 0.00671339, cell count 750
bounding box: xmin -12.1408 -1.31441 0.378423, xmax -12.0502 -1.2385 1.79578m 
step 456, time 0.456000, maxvel 2.000000, total vol 181389, vol(u>maxvel) 0.00672743, cell count 751
bounding box: xmin -12.1408 -1.31441 0.378423, xmax -12.0502 -1.2385 1.79578m 
step 457, time 0.457000, maxvel 2.000000, total vol 181389, vol(u>maxvel) 0.00675087, cell count 754
bounding box: xmin -12.1408 -1.31441 0.378423, xmax -12.0502 -1.2385 1.79578m 
step 458, time 0.458000, maxvel 2.000000, total vol 181389, vol(u>maxvel) 0.00675087, cell count 754
bounding box: xmin -12.1408 -1.31441 0.378423, xmax -12.0502 -1.2385 1.79578m 
step 459, time 0.459000, maxvel 2.000000, total vol 181389, vol(u>maxvel) 0.00676963, cell count 756
bounding box: xmin -12.1408 -1.31441 0.378423, xmax -12.0502 -1.2385 1.79578m 
step 460, time 0.460000, maxvel 2.000000, total vol 181389, vol(u>maxvel) 0.00678825, cell count 759
bounding box: xmin -12.1408 -1.31441 0.378423, xmax -12.0502 -1.2385 1.79578m 
step 461, time 0.461000, maxvel 2.000000, total vol 181389, vol(u>maxvel) 0.00678825, cell count 759
bounding box: xmin -12.1408 -1.31441 0.378423, xmax -12.0502 -1.2385 1.79578m 
step 462, time 0.462000, maxvel 2.000000, total vol 181389, vol(u>maxvel) 0.00678825, cell count 759
bounding box: xmin -12.1408 -1.31441 0.378423, xmax -12.0502 -1.2385 1.79578m 
step 463, time 0.463000, maxvel 2.000000, total vol 181389, vol(u>maxvel) 0.00680726, cell count 761
bounding box: xmin -12.1408 -1.31441 0.378423, xmax -12.0502 -1.2385 1.79578m 
step 464, time 0.464000, maxvel 2.000000, total vol 181389, vol(u>maxvel) 0.00680726, cell count 761
bounding box: xmin -12.1408 -1.31441 0.378423, xmax -12.0502 -1.2385 1.79578m 
step 465, time 0.465000, maxvel 2.000000, total vol 181389, vol(u>maxvel) 0.00681102, cell count 762
bounding box: xmin -12.1408 -1.31441 0.378423, xmax -12.0502 -1.2385 1.79578m 
step 466, time 0.466000, maxvel 2.000000, total vol 181389, vol(u>maxvel) 0.00682571, cell count 765
bounding box: xmin -12.1408 -1.31441 0.378423, xmax -12.0502 -1.2385 1.79578m 
step 467, time 0.467000, maxvel 2.000000, total vol 181389, vol(u>maxvel) 0.00683031, cell count 766
bounding box: xmin -12.1408 -1.31441 0.378423, xmax -12.0502 -1.2385 1.79578m 
step 468, time 0.468000, maxvel 2.000000, total vol 181389, vol(u>maxvel) 0.00684599, cell count 768
bounding box: xmin -12.1408 -1.31441 0.378423, xmax -12.0502 -1.2385 1.79578m 
step 469, time 0.469000, maxvel 2.000000, total vol 181389, vol(u>maxvel) 0.00685281, cell count 769
bounding box: xmin -12.1408 -1.31441 0.378423, xmax -12.0502 -1.2385 1.79578m 
step 470, time 0.470000, maxvel 2.000000, total vol 181389, vol(u>maxvel) 0.00685281, cell count 769
bounding box: xmin -12.1408 -1.31441 0.378423, xmax -12.0502 -1.2385 1.79578m 
step 471, time 0.471000, maxvel 2.000000, total vol 181389, vol(u>maxvel) 0.0068692, cell count 770
bounding box: xmin -12.1408 -1.31441 0.378423, xmax -12.0502 -1.2385 1.79578m 
step 472, time 0.472000, maxvel 2.000000, total vol 181389, vol(u>maxvel) 0.0068692, cell count 770
bounding box: xmin -12.1408 -1.31441 0.378423, xmax -12.0502 -1.2385 1.79578m 
step 473, time 0.473000, maxvel 2.000000, total vol 181389, vol(u>maxvel) 0.0068692, cell count 770
bounding box: xmin -12.1408 -1.31441 0.378423, xmax -12.0502 -1.2385 1.79578m 
step 474, time 0.474000, maxvel 2.000000, total vol 181389, vol(u>maxvel) 0.0068692, cell count 770
bounding box: xmin -12.1408 -1.31441 0.378423, xmax -12.0502 -1.2385 1.79578m 
step 475, time 0.475000, maxvel 2.000000, total vol 181389, vol(u>maxvel) 0.00689981, cell count 773
bounding box: xmin -12.1408 -1.31441 0.378423, xmax -12.0502 -1.2385 1.79578m 
step 476, time 0.476000, maxvel 2.000000, total vol 181389, vol(u>maxvel) 0.00689981, cell count 773
bounding box: xmin -12.1408 -1.31441 0.378423, xmax -12.0502 -1.2385 1.79578m 
step 477, time 0.477000, maxvel 2.000000, total vol 181389, vol(u>maxvel) 0.00689981, cell count 773
bounding box: xmin -12.1408 -1.31441 0.378423, xmax -12.0502 -1.2385 1.79578m 
step 478, time 0.478000, maxvel 2.000000, total vol 181389, vol(u>maxvel) 0.00690825, cell count 774
bounding box: xmin -12.1408 -1.31441 0.378423, xmax -12.0502 -1.2385 1.79578m 
step 479, time 0.479000, maxvel 2.000000, total vol 181389, vol(u>maxvel) 0.00690825, cell count 774
bounding box: xmin -12.1408 -1.31441 0.378423, xmax -12.0502 -1.2385 1.79578m 
step 480, time 0.480000, maxvel 2.000000, total vol 181389, vol(u>maxvel) 0.00691675, cell count 775
bounding box: xmin -12.1408 -1.31441 0.378423, xmax -12.0502 -1.2385 1.79578m 
step 481, time 0.481000, maxvel 2.000000, total vol 181389, vol(u>maxvel) 0.00691675, cell count 775
bounding box: xmin -12.1408 -1.31441 0.378423, xmax -12.0502 -1.2385 1.79578m 
step 482, time 0.482000, maxvel 2.000000, total vol 181389, vol(u>maxvel) 0.00691675, cell count 775
bounding box: xmin -12.1408 -1.31441 0.378423, xmax -12.0502 -1.2385 1.79578m 
step 483, time 0.483000, maxvel 2.000000, total vol 181389, vol(u>maxvel) 0.00691675, cell count 775
bounding box: xmin -12.1408 -1.31441 0.378423, xmax -12.0502 -1.2385 1.79578m 
step 484, time 0.484000, maxvel 2.000000, total vol 181389, vol(u>maxvel) 0.00692515, cell count 776
bounding box: xmin -12.1408 -1.31441 0.378423, xmax -12.0502 -1.2385 1.79578m 
step 485, time 0.485000, maxvel 2.000000, total vol 181389, vol(u>maxvel) 0.00692515, cell count 776
bounding box: xmin -12.1408 -1.31441 0.378423, xmax -12.0502 -1.2385 1.79578m 
step 486, time 0.486000, maxvel 2.000000, total vol 181389, vol(u>maxvel) 0.00692515, cell count 776
bounding box: xmin -12.1408 -1.31441 0.378423, xmax -12.0502 -1.2385 1.79578m 
step 487, time 0.487000, maxvel 2.000000, total vol 181389, vol(u>maxvel) 0.00692515, cell count 776
bounding box: xmin -12.1408 -1.31441 0.378423, xmax -12.0502 -1.2385 1.79578m 
step 488, time 0.488000, maxvel 2.000000, total vol 181389, vol(u>maxvel) 0.00693684, cell count 777
[...]
step 766, time 0.766000, maxvel 2.000000, total vol 181389, vol(u>maxvel) 0.00765768, cell count 837
bounding box: xmin -12.1408 -1.31833 0.378051, xmax -12.0499 -1.2385 1.79578m 
step 767, time 0.767000, maxvel 2.000000, total vol 181389, vol(u>maxvel) 0.00765768, cell count 837
bounding box: xmin -12.1408 -1.31833 0.378051, xmax -12.0499 -1.2385 1.79578m 
step 768, time 0.768000, maxvel 2.000000, total vol 181389, vol(u>maxvel) 0.00766774, cell count 838
bounding box: xmin -12.1408 -1.31833 0.378051, xmax -12.0499 -1.2385 1.79578m 
step 769, time 0.769000, maxvel 2.000000, total vol 181389, vol(u>maxvel) 0.00766774, cell count 838
bounding box: xmin -12.1408 -1.31833 0.378051, xmax -12.0499 -1.2385 1.79578m 
step 770, time 0.770000, maxvel 2.000000, total vol 181389, vol(u>maxvel) 0.00766774, cell count 838
bounding box: xmin -12.1408 -1.31833 0.378051, xmax -12.0499 -1.2385 1.79578m 
step 771, time 0.771000, maxvel 2.000000, total vol 181389, vol(u>maxvel) 0.00766774, cell count 838
bounding box: xmin -12.1408 -1.31833 0.378051, xmax -12.0499 -1.2385 1.79578m 
step 772, time 0.772000, maxvel 2.000000, total vol 181389, vol(u>maxvel) 0.00766774, cell count 838
bounding box: xmin -12.1408 -1.31833 0.378051, xmax -12.0499 -1.2385 1.79578m 
step 773, time 0.773000, maxvel 2.000000, total vol 181389, vol(u>maxvel) 0.00766774, cell count 838
bounding box: xmin -12.1408 -1.31833 0.378051, xmax -12.0499 -1.2385 1.79578m 
step 774, time 0.774000, maxvel 2.000000, total vol 181389, vol(u>maxvel) 0.00766774, cell count 838
bounding box: xmin -12.1408 -1.31833 0.378051, xmax -12.0499 -1.2385 1.79578m 
step 775, time 0.775000, maxvel 2.000000, total vol 181389, vol(u>maxvel) 0.00765919, cell count 837
bounding box: xmin -12.1408 -1.31833 0.378051, xmax -12.0499 -1.2385 1.79578m 
step 776, time 0.776000, maxvel 2.000000, total vol 181389, vol(u>maxvel) 0.00765919, cell count 837
bounding box: xmin -12.1408 -1.31833 0.378051, xmax -12.0499 -1.2385 1.79578m 
step 777, time 0.777000, maxvel 2.000000, total vol 181389, vol(u>maxvel) 0.00765919, cell count 837
bounding box: xmin -12.1408 -1.31833 0.378051, xmax -12.0499 -1.2385 1.79578m 
step 778, time 0.778000, maxvel 2.000000, total vol 181389, vol(u>maxvel) 0.00765542, cell count 836
bounding box: xmin -12.1408 -1.31833 0.378051, xmax -12.0499 -1.2385 1.79578m 
step 779, time 0.779000, maxvel 2.000000, total vol 181389, vol(u>maxvel) 0.00765542, cell count 836
bounding box: xmin -12.1408 -1.31833 0.378051, xmax -12.0499 -1.2385 1.79578m 
step 780, time 0.780000, maxvel 2.000000, total vol 181389, vol(u>maxvel) 0.00765542, cell count 836
bounding box: xmin -12.1408 -1.31833 0.378051, xmax -12.0499 -1.2385 1.79578m 
step 781, time 0.781000, maxvel 2.000000, total vol 181389, vol(u>maxvel) 0.00765542, cell count 836
bounding box: xmin -12.1408 -1.31833 0.378051, xmax -12.0499 -1.2385 1.79578m 
step 782, time 0.782000, maxvel 2.000000, total vol 181389, vol(u>maxvel) 0.00765542, cell count 836
bounding box: xmin -12.1408 -1.31833 0.378051, xmax -12.0499 -1.2385 1.79578m 
step 783, time 0.783000, maxvel 2.000000, total vol 181389, vol(u>maxvel) 0.00765542, cell count 836
bounding box: xmin -12.1408 -1.31833 0.378051, xmax -12.0499 -1.2385 1.79578m 
step 784, time 0.784000, maxvel 2.000000, total vol 181389, vol(u>maxvel) 0.00765542, cell count 836
bounding box: xmin -12.1408 -1.31833 0.378051, xmax -12.0499 -1.2385 1.79578m 
step 785, time 0.785000, maxvel 2.000000, total vol 181389, vol(u>maxvel) 0.00765542, cell count 836
bounding box: xmin -12.1408 -1.31833 0.378051, xmax -12.0499 -1.2385 1.79578m 
step 786, time 0.786000, maxvel 2.000000, total vol 181389, vol(u>maxvel) 0.00765542, cell count 836
bounding box: xmin -12.1408 -1.31833 0.378051, xmax -12.0499 -1.2385 1.79578m 
step 787, time 0.787000, maxvel 2.000000, total vol 181389, vol(u>maxvel) 0.00765542, cell count 836
bounding box: xmin -12.1408 -1.31833 0.378051, xmax -12.0499 -1.2385 1.79578m 
step 788, time 0.788000, maxvel 2.000000, total vol 181389, vol(u>maxvel) 0.00765542, cell count 836
bounding box: xmin -12.1408 -1.31833 0.378051, xmax -12.0499 -1.2385 1.79578m 
step 789, time 0.789000, maxvel 2.000000, total vol 181389, vol(u>maxvel) 0.00765542, cell count 836
bounding box: xmin -12.1408 -1.31833 0.378051, xmax -12.0499 -1.2385 1.79578m 
step 790, time 0.790000, maxvel 2.000000, total vol 181389, vol(u>maxvel) 0.00765542, cell count 836
bounding box: xmin -12.1408 -1.31833 0.378051, xmax -12.0499 -1.2385 1.79578m 
step 791, time 0.791000, maxvel 2.000000, total vol 181389, vol(u>maxvel) 0.00763882, cell count 835
bounding box: xmin -12.1408 -1.31833 0.378051, xmax -12.0499 -1.2385 1.79578m 
step 792, time 0.792000, maxvel 2.000000, total vol 181389, vol(u>maxvel) 0.00763882, cell count 835
bounding box: xmin -12.1408 -1.31833 0.378051, xmax -12.0499 -1.2385 1.79578m 
step 793, time 0.793000, maxvel 2.000000, total vol 181389, vol(u>maxvel) 0.00763882, cell count 835
bounding box: xmin -12.1408 -1.31833 0.378051, xmax -12.0499 -1.2385 1.79578m 
step 794, time 0.794000, maxvel 2.000000, total vol 181389, vol(u>maxvel) 0.00763882, cell count 835
bounding box: xmin -12.1408 -1.31833 0.378051, xmax -12.0499 -1.2385 1.79578m 
step 795, time 0.795000, maxvel 2.000000, total vol 181389, vol(u>maxvel) 0.00763882, cell count 835
bounding box: xmin -12.1408 -1.31833 0.378051, xmax -12.0499 -1.2385 1.79578m 
step 796, time 0.796000, maxvel 2.000000, total vol 181389, vol(u>maxvel) 0.00763882, cell count 835
bounding box: xmin -12.1408 -1.31833 0.378051, xmax -12.0499 -1.2385 1.79578m 
step 797, time 0.797000, maxvel 2.000000, total vol 181389, vol(u>maxvel) 0.00763882, cell count 835
bounding box: xmin -12.1408 -1.31833 0.378051, xmax -12.0499 -1.2385 1.79578m 
step 798, time 0.798000, maxvel 2.000000, total vol 181389, vol(u>maxvel) 0.00763882, cell count 835
bounding box: xmin -12.1408 -1.31833 0.378051, xmax -12.0499 -1.2385 1.79578m 
step 799, time 0.799000, maxvel 2.000000, total vol 181389, vol(u>maxvel) 0.00763882, cell count 835
bounding box: xmin -12.1408 -1.31833 0.378051, xmax -12.0499 -1.2385 1.79578m 
step 800, time 0.800000, maxvel 2.000000, total vol 181389, vol(u>maxvel) 0.00763882, cell count 835
bounding box: xmin -12.1408 -1.31833 0.378051, xmax -12.0499 -1.2385 1.79578m 
step 801, time 0.801000, maxvel 2.000000, total vol 181389, vol(u>maxvel) 0.00763882, cell count 835
bounding box: xmin -12.1408 -1.31833 0.378051, xmax -12.0499 -1.2385 1.79578m 
step 802, time 0.802000, maxvel 2.000000, total vol 181389, vol(u>maxvel) 0.00763882, cell count 835
bounding box: xmin -12.1408 -1.31833 0.378051, xmax -12.0499 -1.2385 1.79578m 
step 803, time 0.803000, maxvel 2.000000, total vol 181389, vol(u>maxvel) 0.00763882, cell count 835
bounding box: xmin -12.1408 -1.31833 0.378051, xmax -12.0499 -1.2385 1.79578m 
step 804, time 0.804000, maxvel 2.000000, total vol 181389, vol(u>maxvel) 0.00763029, cell count 834
bounding box: xmin -12.1408 -1.31833 0.378051, xmax -12.0499 -1.2385 1.79578m 
step 805, time 0.805000, maxvel 2.000000, total vol 181389, vol(u>maxvel) 0.00763029, cell count 834
bounding box: xmin -12.1408 -1.31833 0.378051, xmax -12.0499 -1.2385 1.79578m 
step 806, time 0.806000, maxvel 2.000000, total vol 181389, vol(u>maxvel) 0.00761906, cell count 833
bounding box: xmin -12.1408 -1.31833 0.378051, xmax -12.0499 -1.2385 1.79578m 
step 807, time 0.807000, maxvel 2.000000, total vol 181389, vol(u>maxvel) 0.00761906, cell count 833
bounding box: xmin -12.1408 -1.31833 0.378051, xmax -12.0499 -1.2385 1.79578m 
step 808, time 0.808000, maxvel 2.000000, total vol 181389, vol(u>maxvel) 0.00761906, cell count 833
bounding box: xmin -12.1408 -1.31833 0.378051, xmax -12.0499 -1.2385 1.79578m 
step 809, time 0.809000, maxvel 2.000000, total vol 181389, vol(u>maxvel) 0.00761906, cell count 833
bounding box: xmin -12.1408 -1.31833 0.378051, xmax -12.0499 -1.2385 1.79578m 
step 810, time 0.810000, maxvel 2.000000, total vol 181389, vol(u>maxvel) 0.00761906, cell count 833
bounding box: xmin -12.1408 -1.31833 0.378051, xmax -12.0499 -1.2385 1.79578m 
step 811, time 0.811000, maxvel 2.000000, total vol 181389, vol(u>maxvel) 0.0076673, cell count 834
bounding box: xmin -12.1408 -1.31833 0.378051, xmax -12.0499 -1.2385 1.79578m 
step 812, time 0.812000, maxvel 2.000000, total vol 181389, vol(u>maxvel) 0.0076673, cell count 834
bounding box: xmin -12.1408 -1.31833 0.378051, xmax -12.0499 -1.2385 1.79578m 
step 813, time 0.813000, maxvel 2.000000, total vol 181389, vol(u>maxvel) 0.0076673, cell count 834
bounding box: xmin -12.1408 -1.31833 0.378051, xmax -12.0499 -1.2385 1.79578m 
step 814, time 0.814000, maxvel 2.000000, total vol 181389, vol(u>maxvel) 0.007681, cell count 835
bounding box: xmin -12.1408 -1.31833 0.378051, xmax -12.0499 -1.2385 1.79578m 
step 815, time 0.815000, maxvel 2.000000, total vol 181389, vol(u>maxvel) 0.007681, cell count 835
bounding box: xmin -12.1408 -1.31833 0.378051, xmax -12.0499 -1.2385 1.79578m 
step 816, time 0.816000, maxvel 2.000000, total vol 181389, vol(u>maxvel) 0.007681, cell count 835
bounding box: xmin -12.1408 -1.31833 0.378051, xmax -12.0499 -1.2385 1.79578m 
step 817, time 0.817000, maxvel 2.000000, total vol 181389, vol(u>maxvel) 0.007681, cell count 835
bounding box: xmin -12.1408 -1.31833 0.378051, xmax -12.0499 -1.2385 1.79578m 
step 818, time 0.818000, maxvel 2.000000, total vol 181389, vol(u>maxvel) 0.007681, cell count 835
bounding box: xmin -12.1408 -1.31833 0.378051, xmax -12.0499 -1.2385 1.79578m 
step 819, time 0.819000, maxvel 2.000000, total vol 181389, vol(u>maxvel) 0.007681, cell count 835
bounding box: xmin -12.1408 -1.31833 0.378051, xmax -12.0499 -1.2385 1.79578m 
step 820, time 0.820000, maxvel 2.000000, total vol 181389, vol(u>maxvel) 0.0076726, cell count 834
bounding box: xmin -12.1408 -1.31833 0.378051, xmax -12.0499 -1.2385 1.79578m 
step 821, time 0.821000, maxvel 2.000000, total vol 181389, vol(u>maxvel) 0.0076726, cell count 834
bounding box: xmin -12.1408 -1.31833 0.378051, xmax -12.0499 -1.2385 1.79578m 
step 822, time 0.822000, maxvel 2.000000, total vol 181389, vol(u>maxvel) 0.00765567, cell count 833
bounding box: xmin -12.1408 -1.31833 0.378051, xmax -12.0499 -1.2385 1.79578m 
step 823, time 0.823000, maxvel 2.000000, total vol 181389, vol(u>maxvel) 0.00765567, cell count 833
bounding box: xmin -12.1408 -1.31833 0.378051, xmax -12.0499 -1.2385 1.79578m 
step 824, time 0.824000, maxvel 2.000000, total vol 181389, vol(u>maxvel) 0.00765567, cell count 833
bounding box: xmin -12.1408 -1.31833 0.378051, xmax -12.0499 -1.2385 1.79578m 
step 825, time 0.825000, maxvel 2.000000, total vol 181389, vol(u>maxvel) 0.00765567, cell count 833
bounding box: xmin -12.1408 -1.31833 0.378051, xmax -12.0499 -1.2385 1.79578m 
step 826, time 0.826000, maxvel 2.000000, total vol 181389, vol(u>maxvel) 0.00765567, cell count 833
bounding box: xmin -12.1408 -1.31833 0.378051, xmax -12.0499 -1.2385 1.79578m 
step 827, time 0.827000, maxvel 2.000000, total vol 181389, vol(u>maxvel) 0.00768684, cell count 834
bounding box: xmin -12.1408 -1.31833 0.378051, xmax -12.0499 -1.2385 1.79578m 
step 828, time 0.828000, maxvel 2.000000, total vol 181389, vol(u>maxvel) 0.00768684, cell count 834
bounding box: xmin -12.1408 -1.31833 0.378051, xmax -12.0499 -1.2385 1.79578m 
step 829, time 0.829000, maxvel 2.000000, total vol 181389, vol(u>maxvel) 0.00768684, cell count 834
bounding box: xmin -12.1408 -1.31833 0.378051, xmax -12.0499 -1.2385 1.79578m 
step 830, time 0.830000, maxvel 2.000000, total vol 181389, vol(u>maxvel) 0.00768684, cell count 834
bounding box: xmin -12.1408 -1.31833 0.378051, xmax -12.0499 -1.2385 1.79578m 
step 831, time 0.831000, maxvel 2.000000, total vol 181389, vol(u>maxvel) 0.00768684, cell count 834
bounding box: xmin -12.1408 -1.31833 0.378051, xmax -12.0499 -1.2385 1.79578m 
step 832, time 0.832000, maxvel 2.000000, total vol 181389, vol(u>maxvel) 0.00768684, cell count 834
bounding box: xmin -12.1408 -1.31833 0.378051, xmax -12.0499 -1.2385 1.79578m 
step 833, time 0.833000, maxvel 2.000000, total vol 181389, vol(u>maxvel) 0.00768684, cell count 834
bounding box: xmin -12.1408 -1.31833 0.378051, xmax -12.0499 -1.2385 1.79578m 
step 834, time 0.834000, maxvel 2.000000, total vol 181389, vol(u>maxvel) 0.00768684, cell count 834
bounding box: xmin -12.1408 -1.31833 0.378051, xmax -12.0499 -1.2385 1.79578m 
step 835, time 0.835000, maxvel 2.000000, total vol 181389, vol(u>maxvel) 0.00768684, cell count 834
bounding box: xmin -12.1408 -1.31833 0.378051, xmax -12.0499 -1.2385 1.79578m 
step 836, time 0.836000, maxvel 2.000000, total vol 181389, vol(u>maxvel) 0.00768684, cell count 834
bounding box: xmin -12.1408 -1.31833 0.378051, xmax -12.0499 -1.2385 1.79578m 
step 837, time 0.837000, maxvel 2.000000, total vol 181389, vol(u>maxvel) 0.00768684, cell count 834
bounding box: xmin -12.1408 -1.31833 0.378051, xmax -12.0499 -1.2385 1.79578m 
step 838, time 0.838000, maxvel 2.000000, total vol 181389, vol(u>maxvel) 0.00768684, cell count 834
bounding box: xmin -12.1408 -1.31833 0.378051, xmax -12.0499 -1.2385 1.79578m 
step 839, time 0.839000, maxvel 2.000000, total vol 181389, vol(u>maxvel) 0.00768338, cell count 833
bounding box: xmin -12.1408 -1.31833 0.378051, xmax -12.0499 -1.2385 1.79578m 
step 840, time 0.840000, maxvel 2.000000, total vol 181389, vol(u>maxvel) 0.00768338, cell count 833
bounding box: xmin -12.1408 -1.31833 0.378051, xmax -12.0499 -1.2385 1.79578m 
step 841, time 0.841000, maxvel 2.000000, total vol 181389, vol(u>maxvel) 0.00768338, cell count 833
bounding box: xmin -12.1408 -1.31833 0.378051, xmax -12.0499 -1.2385 1.79578m 
step 842, time 0.842000, maxvel 2.000000, total vol 181389, vol(u>maxvel) 0.00768338, cell count 833
bounding box: xmin -12.1408 -1.31833 0.378051, xmax -12.0499 -1.2385 1.79578m 
step 843, time 0.843000, maxvel 2.000000, total vol 181389, vol(u>maxvel) 0.00768338, cell count 833
bounding box: xmin -12.1408 -1.31833 0.378051, xmax -12.0499 -1.2385 1.79578m 
step 844, time 0.844000, maxvel 2.000000, total vol 181389, vol(u>maxvel) 0.00768338, cell count 833
bounding box: xmin -12.1408 -1.31833 0.378051, xmax -12.0499 -1.2385 1.79578m 
step 845, time 0.845000, maxvel 2.000000, total vol 181389, vol(u>maxvel) 0.00768338, cell count 833
bounding box: xmin -12.1408 -1.31833 0.378051, xmax -12.0499 -1.2385 1.79578m 
step 846, time 0.846000, maxvel 2.000000, total vol 181389, vol(u>maxvel) 0.00768338, cell count 833
bounding box: xmin -12.1408 -1.31833 0.378051, xmax -12.0499 -1.2385 1.79578m 
step 847, time 0.847000, maxvel 2.000000, total vol 181389, vol(u>maxvel) 0.00768338, cell count 833
bounding box: xmin -12.1408 -1.31833 0.378051, xmax -12.0499 -1.2385 1.79578m 
step 848, time 0.848000, maxvel 2.000000, total vol 181389, vol(u>maxvel) 0.00768338, cell count 833
bounding box: xmin -12.1408 -1.31833 0.378051, xmax -12.0499 -1.2385 1.79578m 
step 849, time 0.849000, maxvel 2.000000, total vol 181389, vol(u>maxvel) 0.00768338, cell count 833
bounding box: xmin -12.1408 -1.31833 0.378051, xmax -12.0499 -1.2385 1.79578m 
step 850, time 0.850000, maxvel 2.000000, total vol 181389, vol(u>maxvel) 0.00768338, cell count 833
bounding box: xmin -12.1408 -1.31833 0.378051, xmax -12.0499 -1.2385 1.79578m 
step 851, time 0.851000, maxvel 2.000000, total vol 181389, vol(u>maxvel) 0.00768338, cell count 833
bounding box: xmin -12.1408 -1.31833 0.378051, xmax -12.0499 -1.2385 1.79578m 
step 852, time 0.852000, maxvel 2.000000, total vol 181389, vol(u>maxvel) 0.00768338, cell count 833
bounding box: xmin -12.1408 -1.31833 0.378051, xmax -12.0499 -1.2385 1.79578m 
step 853, time 0.853000, maxvel 2.000000, total vol 181389, vol(u>maxvel) 0.00768338, cell count 833
bounding box: xmin -12.1408 -1.31833 0.378051, xmax -12.0499 -1.2385 1.79578m 
step 854, time 0.854000, maxvel 2.000000, total vol 181389, vol(u>maxvel) 0.00767883, cell count 832
bounding box: xmin -12.1408 -1.31833 0.378051, xmax -12.0499 -1.2385 1.79578m 
step 855, time 0.855000, maxvel 2.000000, total vol 181389, vol(u>maxvel) 0.00767883, cell count 832
bounding box: xmin -12.1408 -1.31833 0.378051, xmax -12.0499 -1.2385 1.79578m 
step 856, time 0.856000, maxvel 2.000000, total vol 181389, vol(u>maxvel) 0.00767883, cell count 832
bounding box: xmin -12.1408 -1.31833 0.378051, xmax -12.0499 -1.2385 1.79578m 
step 857, time 0.857000, maxvel 2.000000, total vol 181389, vol(u>maxvel) 0.00767883, cell count 832
bounding box: xmin -12.1408 -1.31833 0.378051, xmax -12.0499 -1.2385 1.79578m 
step 858, time 0.858000, maxvel 2.000000, total vol 181389, vol(u>maxvel) 0.00767883, cell count 832
bounding box: xmin -12.1408 -1.31833 0.378051, xmax -12.0499 -1.2385 1.79578m 
step 859, time 0.859000, maxvel 2.000000, total vol 181389, vol(u>maxvel) 0.00767883, cell count 832
bounding box: xmin -12.1408 -1.31833 0.378051, xmax -12.0499 -1.2385 1.79578m 
step 860, time 0.860000, maxvel 2.000000, total vol 181389, vol(u>maxvel) 0.00767883, cell count 832
bounding box: xmin -12.1408 -1.31833 0.378051, xmax -12.0499 -1.2385 1.79578m 
step 861, time 0.861000, maxvel 2.000000, total vol 181389, vol(u>maxvel) 0.00767883, cell count 832
bounding box: xmin -12.1408 -1.31833 0.378051, xmax -12.0499 -1.2385 1.79578m 
step 862, time 0.862000, maxvel 2.000000, total vol 181389, vol(u>maxvel) 0.00768365, cell count 833
bounding box: xmin -12.1408 -1.31833 0.378051, xmax -12.0499 -1.2385 1.79578m 
step 863, time 0.863000, maxvel 2.000000, total vol 181389, vol(u>maxvel) 0.00768365, cell count 833
bounding box: xmin -12.1408 -1.31833 0.378051, xmax -12.0499 -1.2385 1.79578m 
step 864, time 0.864000, maxvel 2.000000, total vol 181389, vol(u>maxvel) 0.00768365, cell count 833
bounding box: xmin -12.1408 -1.31833 0.378051, xmax -12.0499 -1.2385 1.79578m 
step 865, time 0.865000, maxvel 2.000000, total vol 181389, vol(u>maxvel) 0.00768365, cell count 833
bounding box: xmin -12.1408 -1.31833 0.378051, xmax -12.0499 -1.2385 1.79578m 
step 866, time 0.866000, maxvel 2.000000, total vol 181389, vol(u>maxvel) 0.00768365, cell count 833
bounding box: xmin -12.1408 -1.31833 0.378051, xmax -12.0499 -1.2385 1.79578m 
step 867, time 0.867000, maxvel 2.000000, total vol 181389, vol(u>maxvel) 0.00768365, cell count 833
bounding box: xmin -12.1408 -1.31833 0.378051, xmax -12.0499 -1.2385 1.79578m 
step 868, time 0.868000, maxvel 2.000000, total vol 181389, vol(u>maxvel) 0.00768365, cell count 833
bounding box: xmin -12.1408 -1.31833 0.378051, xmax -12.0499 -1.2385 1.79578m 
step 869, time 0.869000, maxvel 2.000000, total vol 181389, vol(u>maxvel) 0.00768365, cell count 833
bounding box: xmin -12.1408 -1.31833 0.378051, xmax -12.0499 -1.2385 1.79578m 
step 870, time 0.870000, maxvel 2.000000, total vol 181389, vol(u>maxvel) 0.00768365, cell count 833
bounding box: xmin -12.1408 -1.31833 0.378051, xmax -12.0499 -1.2385 1.79578m 
step 871, time 0.871000, maxvel 2.000000, total vol 181389, vol(u>maxvel) 0.00768365, cell count 833
bounding box: xmin -12.1408 -1.31833 0.378051, xmax -12.0499 -1.2385 1.79578m 
step 872, time 0.872000, maxvel 2.000000, total vol 181389, vol(u>maxvel) 0.00768365, cell count 833
bounding box: xmin -12.1408 -1.31833 0.378051, xmax -12.0499 -1.2385 1.79578m 
step 873, time 0.873000, maxvel 2.000000, total vol 181389, vol(u>maxvel) 0.00768365, cell count 833
bounding box: xmin -12.1408 -1.31833 0.378051, xmax -12.0499 -1.2385 1.79578m 
step 874, time 0.874000, maxvel 2.000000, total vol 181389, vol(u>maxvel) 0.00768365, cell count 833
bounding box: xmin -12.1408 -1.31833 0.378051, xmax -12.0499 -1.2385 1.79578m 
srun: Job step aborted: Waiting up to 32 seconds for job step to finish.
srun: got SIGCONT
slurmstepd: error: *** STEP 138198.0 ON compute-0-1 CANCELLED AT 2022-07-26T12:16:06 ***
slurmstepd: error: *** JOB 138198 ON compute-0-1 CANCELLED AT 2022-07-26T12:16:06 ***
srun: forcing job termination
make: *** [run] Terminated
