Start run at Thu Jul 28 16:48:28 ART 2022
PYTHON_CS_XFLAGS=' -O0 -g3 -ggdb3 -I/usr/include/jsoncpp ' /share/storage/pub/mstorti/saturne-vof/bin/code_saturne  run --param setup.xml

The following have been reloaded with a version change:
  1) llvm/6.0.0 => llvm/3.4.2


The following have been reloaded with a version change:
  1) llvm/3.4.2 => llvm/6.0.0


                      Code_Saturne
                      ************

 Version:   6.1-alpha
 Path:      /share/storage/pub/mstorti/saturne-vof

 Result directory:
   /share/storage/finzeo/GTS_Tunay_2/RESU/20220728-1648


 ****************************************
  Compiling user subroutines and linking
 ****************************************


 ****************************
  Preparing calculation data
 ****************************

 Parallel Code_Saturne on 80 processes.


 ***************************
  Preprocessing calculation
 ***************************


 **********************
  Starting calculation
 **********************

Warning: Process to core binding is enabled and OMP_NUM_THREADS is set to non-zero (1) value
If your program has OpenMP sections, this can cause over-subscription of cores and consequently poor performance
To avoid this, please re-run your application after setting MV2_ENABLE_AFFINITY=0
Use MV2_USE_THREAD_WARNING=0 to suppress this message
step 1, time 0.001000, maxvel 2.000000, total vol 181461, vol(u>maxvel) 0, cell count 0
bounding box: xmin inf inf inf, xmax -inf -inf -infm 
step 2, time 0.002000, maxvel 2.000000, total vol 181461, vol(u>maxvel) 0, cell count 0
bounding box: xmin inf inf inf, xmax -inf -inf -infm 
step 3, time 0.003000, maxvel 2.000000, total vol 181461, vol(u>maxvel) 0, cell count 0
bounding box: xmin inf inf inf, xmax -inf -inf -infm 
step 4, time 0.004000, maxvel 2.000000, total vol 181461, vol(u>maxvel) 0, cell count 0
bounding box: xmin inf inf inf, xmax -inf -inf -infm 
step 5, time 0.005000, maxvel 2.000000, total vol 181461, vol(u>maxvel) 0, cell count 0
bounding box: xmin inf inf inf, xmax -inf -inf -infm 
step 6, time 0.006000, maxvel 2.000000, total vol 181461, vol(u>maxvel) 0, cell count 0
bounding box: xmin inf inf inf, xmax -inf -inf -infm 
step 7, time 0.007000, maxvel 2.000000, total vol 181461, vol(u>maxvel) 0, cell count 0
bounding box: xmin inf inf inf, xmax -inf -inf -infm 
step 8, time 0.008000, maxvel 2.000000, total vol 181461, vol(u>maxvel) 0, cell count 0
bounding box: xmin inf inf inf, xmax -inf -inf -infm 
step 9, time 0.009000, maxvel 2.000000, total vol 181461, vol(u>maxvel) 0, cell count 0
bounding box: xmin inf inf inf, xmax -inf -inf -infm 
step 10, time 0.010000, maxvel 2.000000, total vol 181461, vol(u>maxvel) 0, cell count 0
bounding box: xmin inf inf inf, xmax -inf -inf -infm 
step 11, time 0.011000, maxvel 2.000000, total vol 181461, vol(u>maxvel) 0, cell count 0
bounding box: xmin inf inf inf, xmax -inf -inf -infm 
step 12, time 0.012000, maxvel 2.000000, total vol 181461, vol(u>maxvel) 0, cell count 0
bounding box: xmin inf inf inf, xmax -inf -inf -infm 
step 13, time 0.013000, maxvel 2.000000, total vol 181461, vol(u>maxvel) 0, cell count 0
bounding box: xmin inf inf inf, xmax -inf -inf -infm 
step 14, time 0.014000, maxvel 2.000000, total vol 181461, vol(u>maxvel) 0, cell count 0
bounding box: xmin inf inf inf, xmax -inf -inf -infm 
step 15, time 0.015000, maxvel 2.000000, total vol 181461, vol(u>maxvel) 0, cell count 0
bounding box: xmin inf inf inf, xmax -inf -inf -infm 
step 16, time 0.016000, maxvel 2.000000, total vol 181461, vol(u>maxvel) 0, cell count 0
bounding box: xmin inf inf inf, xmax -inf -inf -infm 
step 17, time 0.017000, maxvel 2.000000, total vol 181461, vol(u>maxvel) 0, cell count 0
bounding box: xmin inf inf inf, xmax -inf -inf -infm 
step 18, time 0.018000, maxvel 2.000000, total vol 181461, vol(u>maxvel) 0, cell count 0
bounding box: xmin inf inf inf, xmax -inf -inf -infm 
step 19, time 0.019000, maxvel 2.000000, total vol 181461, vol(u>maxvel) 0, cell count 0
bounding box: xmin inf inf inf, xmax -inf -inf -infm 
step 20, time 0.020000, maxvel 2.000000, total vol 181461, vol(u>maxvel) 0, cell count 0
bounding box: xmin inf inf inf, xmax -inf -inf -infm 
step 21, time 0.021000, maxvel 2.000000, total vol 181461, vol(u>maxvel) 0, cell count 0
bounding box: xmin inf inf inf, xmax -inf -inf -infm 
step 22, time 0.022000, maxvel 2.000000, total vol 181461, vol(u>maxvel) 0, cell count 0
bounding box: xmin inf inf inf, xmax -inf -inf -infm 
step 23, time 0.023000, maxvel 2.000000, total vol 181461, vol(u>maxvel) 0, cell count 0
bounding box: xmin inf inf inf, xmax -inf -inf -infm 
step 24, time 0.024000, maxvel 2.000000, total vol 181461, vol(u>maxvel) 0, cell count 0
bounding box: xmin inf inf inf, xmax -inf -inf -infm 
step 25, time 0.025000, maxvel 2.000000, total vol 181461, vol(u>maxvel) 0, cell count 0
bounding box: xmin inf inf inf, xmax -inf -inf -infm 
step 26, time 0.026000, maxvel 2.000000, total vol 181461, vol(u>maxvel) 0, cell count 0
bounding box: xmin inf inf inf, xmax -inf -inf -infm 
step 27, time 0.027000, maxvel 2.000000, total vol 181461, vol(u>maxvel) 0, cell count 0
bounding box: xmin inf inf inf, xmax -inf -inf -infm 
step 28, time 0.028000, maxvel 2.000000, total vol 181461, vol(u>maxvel) 0, cell count 0
bounding box: xmin inf inf inf, xmax -inf -inf -infm 
step 29, time 0.029000, maxvel 2.000000, total vol 181461, vol(u>maxvel) 0, cell count 0
bounding box: xmin inf inf inf, xmax -inf -inf -infm 
step 30, time 0.030000, maxvel 2.000000, total vol 181461, vol(u>maxvel) 0, cell count 0
bounding box: xmin inf inf inf, xmax -inf -inf -infm 
step 31, time 0.031000, maxvel 2.000000, total vol 181461, vol(u>maxvel) 0, cell count 0
bounding box: xmin inf inf inf, xmax -inf -inf -infm 
step 32, time 0.032000, maxvel 2.000000, total vol 181461, vol(u>maxvel) 0, cell count 0
bounding box: xmin inf inf inf, xmax -inf -inf -infm 
step 33, time 0.033000, maxvel 2.000000, total vol 181461, vol(u>maxvel) 0, cell count 0
bounding box: xmin inf inf inf, xmax -inf -inf -infm 
step 34, time 0.034000, maxvel 2.000000, total vol 181461, vol(u>maxvel) 0, cell count 0
bounding box: xmin inf inf inf, xmax -inf -inf -infm 
step 35, time 0.035000, maxvel 2.000000, total vol 181461, vol(u>maxvel) 0, cell count 0
bounding box: xmin inf inf inf, xmax -inf -inf -infm 
step 36, time 0.036000, maxvel 2.000000, total vol 181461, vol(u>maxvel) 0, cell count 0
bounding box: xmin inf inf inf, xmax -inf -inf -infm 
step 37, time 0.037000, maxvel 2.000000, total vol 181461, vol(u>maxvel) 0, cell count 0
bounding box: xmin inf inf inf, xmax -inf -inf -infm 
step 38, time 0.038000, maxvel 2.000000, total vol 181461, vol(u>maxvel) 0, cell count 0
bounding box: xmin inf inf inf, xmax -inf -inf -infm 
step 39, time 0.039000, maxvel 2.000000, total vol 181461, vol(u>maxvel) 0, cell count 0
bounding box: xmin inf inf inf, xmax -inf -inf -infm 
step 40, time 0.040000, maxvel 2.000000, total vol 181461, vol(u>maxvel) 0, cell count 0
bounding box: xmin inf inf inf, xmax -inf -inf -infm 
step 41, time 0.041000, maxvel 2.000000, total vol 181461, vol(u>maxvel) 0, cell count 0
bounding box: xmin inf inf inf, xmax -inf -inf -infm 
step 42, time 0.042000, maxvel 2.000000, total vol 181461, vol(u>maxvel) 0, cell count 0
bounding box: xmin inf inf inf, xmax -inf -inf -infm 
step 43, time 0.043000, maxvel 2.000000, total vol 181461, vol(u>maxvel) 0, cell count 0
bounding box: xmin inf inf inf, xmax -inf -inf -infm 
step 44, time 0.044000, maxvel 2.000000, total vol 181461, vol(u>maxvel) 0, cell count 0
bounding box: xmin inf inf inf, xmax -inf -inf -infm 
step 45, time 0.045000, maxvel 2.000000, total vol 181461, vol(u>maxvel) 0, cell count 0
bounding box: xmin inf inf inf, xmax -inf -inf -infm 
step 46, time 0.046000, maxvel 2.000000, total vol 181461, vol(u>maxvel) 0, cell count 0
bounding box: xmin inf inf inf, xmax -inf -inf -infm 
step 47, time 0.047000, maxvel 2.000000, total vol 181461, vol(u>maxvel) 0, cell count 0
bounding box: xmin inf inf inf, xmax -inf -inf -infm 
step 48, time 0.048000, maxvel 2.000000, total vol 181461, vol(u>maxvel) 0, cell count 0
bounding box: xmin inf inf inf, xmax -inf -inf -infm 
step 49, time 0.049000, maxvel 2.000000, total vol 181461, vol(u>maxvel) 0, cell count 0
bounding box: xmin inf inf inf, xmax -inf -inf -infm 
step 50, time 0.050000, maxvel 2.000000, total vol 181461, vol(u>maxvel) 0, cell count 0
bounding box: xmin inf inf inf, xmax -inf -inf -infm 
step 51, time 0.051000, maxvel 2.000000, total vol 181461, vol(u>maxvel) 0, cell count 0
bounding box: xmin inf inf inf, xmax -inf -inf -infm 
step 52, time 0.052000, maxvel 2.000000, total vol 181461, vol(u>maxvel) 0, cell count 0
bounding box: xmin inf inf inf, xmax -inf -inf -infm 
step 53, time 0.053000, maxvel 2.000000, total vol 181461, vol(u>maxvel) 0, cell count 0
bounding box: xmin inf inf inf, xmax -inf -inf -infm 
step 54, time 0.054000, maxvel 2.000000, total vol 181461, vol(u>maxvel) 0, cell count 0
bounding box: xmin inf inf inf, xmax -inf -inf -infm 
step 55, time 0.055000, maxvel 2.000000, total vol 181461, vol(u>maxvel) 0, cell count 0
bounding box: xmin inf inf inf, xmax -inf -inf -infm 
step 56, time 0.056000, maxvel 2.000000, total vol 181461, vol(u>maxvel) 0, cell count 0
bounding box: xmin inf inf inf, xmax -inf -inf -infm 
step 57, time 0.057000, maxvel 2.000000, total vol 181461, vol(u>maxvel) 0, cell count 0
bounding box: xmin inf inf inf, xmax -inf -inf -infm 
step 58, time 0.058000, maxvel 2.000000, total vol 181461, vol(u>maxvel) 0, cell count 0
bounding box: xmin inf inf inf, xmax -inf -inf -infm 
step 59, time 0.059000, maxvel 2.000000, total vol 181461, vol(u>maxvel) 0, cell count 0
bounding box: xmin inf inf inf, xmax -inf -inf -infm 
step 60, time 0.060000, maxvel 2.000000, total vol 181461, vol(u>maxvel) 0, cell count 0
bounding box: xmin inf inf inf, xmax -inf -inf -infm 
step 61, time 0.061000, maxvel 2.000000, total vol 181461, vol(u>maxvel) 0, cell count 0
bounding box: xmin inf inf inf, xmax -inf -inf -infm 
step 62, time 0.062000, maxvel 2.000000, total vol 181461, vol(u>maxvel) 0, cell count 0
bounding box: xmin inf inf inf, xmax -inf -inf -infm 
step 63, time 0.063000, maxvel 2.000000, total vol 181461, vol(u>maxvel) 0, cell count 0
bounding box: xmin inf inf inf, xmax -inf -inf -infm 
step 64, time 0.064000, maxvel 2.000000, total vol 181461, vol(u>maxvel) 0, cell count 0
bounding box: xmin inf inf inf, xmax -inf -inf -infm 
step 65, time 0.065000, maxvel 2.000000, total vol 181461, vol(u>maxvel) 0, cell count 0
bounding box: xmin inf inf inf, xmax -inf -inf -infm 
step 66, time 0.066000, maxvel 2.000000, total vol 181461, vol(u>maxvel) 0, cell count 0
bounding box: xmin inf inf inf, xmax -inf -inf -infm 
step 67, time 0.067000, maxvel 2.000000, total vol 181461, vol(u>maxvel) 0, cell count 0
bounding box: xmin inf inf inf, xmax -inf -inf -infm 
step 68, time 0.068000, maxvel 2.000000, total vol 181461, vol(u>maxvel) 0, cell count 0
bounding box: xmin inf inf inf, xmax -inf -inf -infm 
step 69, time 0.069000, maxvel 2.000000, total vol 181461, vol(u>maxvel) 0, cell count 0
bounding box: xmin inf inf inf, xmax -inf -inf -infm 
step 70, time 0.070000, maxvel 2.000000, total vol 181461, vol(u>maxvel) 0, cell count 0
bounding box: xmin inf inf inf, xmax -inf -inf -infm 
step 71, time 0.071000, maxvel 2.000000, total vol 181461, vol(u>maxvel) 0, cell count 0
bounding box: xmin inf inf inf, xmax -inf -inf -infm 
step 72, time 0.072000, maxvel 2.000000, total vol 181461, vol(u>maxvel) 0, cell count 0
bounding box: xmin inf inf inf, xmax -inf -inf -infm 
step 73, time 0.073000, maxvel 2.000000, total vol 181461, vol(u>maxvel) 0, cell count 0
bounding box: xmin inf inf inf, xmax -inf -inf -infm 
step 74, time 0.074000, maxvel 2.000000, total vol 181461, vol(u>maxvel) 0, cell count 0
bounding box: xmin inf inf inf, xmax -inf -inf -infm 
step 75, time 0.075000, maxvel 2.000000, total vol 181461, vol(u>maxvel) 0, cell count 0
bounding box: xmin inf inf inf, xmax -inf -inf -infm 
step 76, time 0.076000, maxvel 2.000000, total vol 181461, vol(u>maxvel) 0, cell count 0
bounding box: xmin inf inf inf, xmax -inf -inf -infm 
step 77, time 0.077000, maxvel 2.000000, total vol 181461, vol(u>maxvel) 0, cell count 0
bounding box: xmin inf inf inf, xmax -inf -inf -infm 
step 78, time 0.078000, maxvel 2.000000, total vol 181461, vol(u>maxvel) 0, cell count 0
bounding box: xmin inf inf inf, xmax -inf -inf -infm 
step 79, time 0.079000, maxvel 2.000000, total vol 181461, vol(u>maxvel) 0, cell count 0
bounding box: xmin inf inf inf, xmax -inf -inf -infm 
step 80, time 0.080000, maxvel 2.000000, total vol 181461, vol(u>maxvel) 0, cell count 0
bounding box: xmin inf inf inf, xmax -inf -inf -infm 
step 81, time 0.081000, maxvel 2.000000, total vol 181461, vol(u>maxvel) 0, cell count 0
bounding box: xmin inf inf inf, xmax -inf -inf -infm 
step 82, time 0.082000, maxvel 2.000000, total vol 181461, vol(u>maxvel) 0, cell count 0
bounding box: xmin inf inf inf, xmax -inf -inf -infm 
step 83, time 0.083000, maxvel 2.000000, total vol 181461, vol(u>maxvel) 0, cell count 0
bounding box: xmin inf inf inf, xmax -inf -inf -infm 
step 84, time 0.084000, maxvel 2.000000, total vol 181461, vol(u>maxvel) 0, cell count 0
bounding box: xmin inf inf inf, xmax -inf -inf -infm 
step 85, time 0.085000, maxvel 2.000000, total vol 181461, vol(u>maxvel) 0, cell count 0
bounding box: xmin inf inf inf, xmax -inf -inf -infm 
step 86, time 0.086000, maxvel 2.000000, total vol 181461, vol(u>maxvel) 0, cell count 0
bounding box: xmin inf inf inf, xmax -inf -inf -infm 
step 87, time 0.087000, maxvel 2.000000, total vol 181461, vol(u>maxvel) 0, cell count 0
bounding box: xmin inf inf inf, xmax -inf -inf -infm 
step 88, time 0.088000, maxvel 2.000000, total vol 181461, vol(u>maxvel) 0, cell count 0
bounding box: xmin inf inf inf, xmax -inf -inf -infm 
step 89, time 0.089000, maxvel 2.000000, total vol 181461, vol(u>maxvel) 0, cell count 0
bounding box: xmin inf inf inf, xmax -inf -inf -infm 
step 90, time 0.090000, maxvel 2.000000, total vol 181461, vol(u>maxvel) 0, cell count 0
bounding box: xmin inf inf inf, xmax -inf -inf -infm 
step 91, time 0.091000, maxvel 2.000000, total vol 181461, vol(u>maxvel) 0, cell count 0
bounding box: xmin inf inf inf, xmax -inf -inf -infm 
step 92, time 0.092000, maxvel 2.000000, total vol 181461, vol(u>maxvel) 0, cell count 0
bounding box: xmin inf inf inf, xmax -inf -inf -infm 
step 93, time 0.093000, maxvel 2.000000, total vol 181461, vol(u>maxvel) 0, cell count 0
bounding box: xmin inf inf inf, xmax -inf -inf -infm 
step 94, time 0.094000, maxvel 2.000000, total vol 181461, vol(u>maxvel) 0, cell count 0
bounding box: xmin inf inf inf, xmax -inf -inf -infm 
step 95, time 0.095000, maxvel 2.000000, total vol 181461, vol(u>maxvel) 0, cell count 0
bounding box: xmin inf inf inf, xmax -inf -inf -infm 
step 96, time 0.096000, maxvel 2.000000, total vol 181461, vol(u>maxvel) 0, cell count 0
bounding box: xmin inf inf inf, xmax -inf -inf -infm 
step 97, time 0.097000, maxvel 2.000000, total vol 181461, vol(u>maxvel) 0, cell count 0
bounding box: xmin inf inf inf, xmax -inf -inf -infm 
step 98, time 0.098000, maxvel 2.000000, total vol 181461, vol(u>maxvel) 0, cell count 0
bounding box: xmin inf inf inf, xmax -inf -inf -infm 
step 99, time 0.099000, maxvel 2.000000, total vol 181461, vol(u>maxvel) 0, cell count 0
bounding box: xmin inf inf inf, xmax -inf -inf -infm 
step 100, time 0.100000, maxvel 2.000000, total vol 181461, vol(u>maxvel) 0, cell count 0
bounding box: xmin inf inf inf, xmax -inf -inf -infm 
step 101, time 0.101000, maxvel 2.000000, total vol 181461, vol(u>maxvel) 0, cell count 0
bounding box: xmin inf inf inf, xmax -inf -inf -infm 
step 102, time 0.102000, maxvel 2.000000, total vol 181461, vol(u>maxvel) 0, cell count 0
bounding box: xmin inf inf inf, xmax -inf -inf -infm 
step 103, time 0.103000, maxvel 2.000000, total vol 181461, vol(u>maxvel) 0, cell count 0
bounding box: xmin inf inf inf, xmax -inf -inf -infm 
step 104, time 0.104000, maxvel 2.000000, total vol 181461, vol(u>maxvel) 0, cell count 0
bounding box: xmin inf inf inf, xmax -inf -inf -infm 
step 105, time 0.105000, maxvel 2.000000, total vol 181461, vol(u>maxvel) 0, cell count 0
bounding box: xmin inf inf inf, xmax -inf -inf -infm 
step 106, time 0.106000, maxvel 2.000000, total vol 181461, vol(u>maxvel) 0, cell count 0
bounding box: xmin inf inf inf, xmax -inf -inf -infm 
step 107, time 0.107000, maxvel 2.000000, total vol 181461, vol(u>maxvel) 0, cell count 0
bounding box: xmin inf inf inf, xmax -inf -inf -infm 
step 108, time 0.108000, maxvel 2.000000, total vol 181461, vol(u>maxvel) 0, cell count 0
bounding box: xmin inf inf inf, xmax -inf -inf -infm 
step 109, time 0.109000, maxvel 2.000000, total vol 181461, vol(u>maxvel) 0, cell count 0
bounding box: xmin inf inf inf, xmax -inf -inf -infm 
step 110, time 0.110000, maxvel 2.000000, total vol 181461, vol(u>maxvel) 0, cell count 0
bounding box: xmin inf inf inf, xmax -inf -inf -infm 
step 111, time 0.111000, maxvel 2.000000, total vol 181461, vol(u>maxvel) 0, cell count 0
bounding box: xmin inf inf inf, xmax -inf -inf -infm 
step 112, time 0.112000, maxvel 2.000000, total vol 181461, vol(u>maxvel) 0, cell count 0
bounding box: xmin inf inf inf, xmax -inf -inf -infm 
step 113, time 0.113000, maxvel 2.000000, total vol 181461, vol(u>maxvel) 0, cell count 0
bounding box: xmin inf inf inf, xmax -inf -inf -infm 
step 114, time 0.114000, maxvel 2.000000, total vol 181461, vol(u>maxvel) 0, cell count 0
bounding box: xmin inf inf inf, xmax -inf -inf -infm 
step 115, time 0.115000, maxvel 2.000000, total vol 181461, vol(u>maxvel) 0, cell count 0
bounding box: xmin inf inf inf, xmax -inf -inf -infm 
step 116, time 0.116000, maxvel 2.000000, total vol 181461, vol(u>maxvel) 0, cell count 0
bounding box: xmin inf inf inf, xmax -inf -inf -infm 
step 117, time 0.117000, maxvel 2.000000, total vol 181461, vol(u>maxvel) 0, cell count 0
bounding box: xmin inf inf inf, xmax -inf -inf -infm 
step 118, time 0.118000, maxvel 2.000000, total vol 181461, vol(u>maxvel) 0, cell count 0
bounding box: xmin inf inf inf, xmax -inf -inf -infm 
step 119, time 0.119000, maxvel 2.000000, total vol 181461, vol(u>maxvel) 0, cell count 0
bounding box: xmin inf inf inf, xmax -inf -inf -infm 
step 120, time 0.120000, maxvel 2.000000, total vol 181461, vol(u>maxvel) 0, cell count 0
bounding box: xmin inf inf inf, xmax -inf -inf -infm 
step 121, time 0.121000, maxvel 2.000000, total vol 181461, vol(u>maxvel) 0, cell count 0
bounding box: xmin inf inf inf, xmax -inf -inf -infm 
step 122, time 0.122000, maxvel 2.000000, total vol 181461, vol(u>maxvel) 0, cell count 0
bounding box: xmin inf inf inf, xmax -inf -inf -infm 
step 123, time 0.123000, maxvel 2.000000, total vol 181461, vol(u>maxvel) 0, cell count 0
bounding box: xmin inf inf inf, xmax -inf -inf -infm 
step 124, time 0.124000, maxvel 2.000000, total vol 181461, vol(u>maxvel) 0, cell count 0
bounding box: xmin inf inf inf, xmax -inf -inf -infm 
step 125, time 0.125000, maxvel 2.000000, total vol 181461, vol(u>maxvel) 0, cell count 0
bounding box: xmin inf inf inf, xmax -inf -inf -infm 
step 126, time 0.126000, maxvel 2.000000, total vol 181461, vol(u>maxvel) 0, cell count 0
bounding box: xmin inf inf inf, xmax -inf -inf -infm 
step 127, time 0.127000, maxvel 2.000000, total vol 181461, vol(u>maxvel) 0, cell count 0
bounding box: xmin inf inf inf, xmax -inf -inf -infm 
step 128, time 0.128000, maxvel 2.000000, total vol 181461, vol(u>maxvel) 0, cell count 0
bounding box: xmin inf inf inf, xmax -inf -inf -infm 
step 129, time 0.129000, maxvel 2.000000, total vol 181461, vol(u>maxvel) 0, cell count 0
bounding box: xmin inf inf inf, xmax -inf -inf -infm 
step 130, time 0.130000, maxvel 2.000000, total vol 181461, vol(u>maxvel) 0, cell count 0
bounding box: xmin inf inf inf, xmax -inf -inf -infm 
step 131, time 0.131000, maxvel 2.000000, total vol 181461, vol(u>maxvel) 0, cell count 0
bounding box: xmin inf inf inf, xmax -inf -inf -infm 
step 132, time 0.132000, maxvel 2.000000, total vol 181461, vol(u>maxvel) 0, cell count 0
bounding box: xmin inf inf inf, xmax -inf -inf -infm 
step 133, time 0.133000, maxvel 2.000000, total vol 181461, vol(u>maxvel) 0, cell count 0
bounding box: xmin inf inf inf, xmax -inf -inf -infm 
step 134, time 0.134000, maxvel 2.000000, total vol 181461, vol(u>maxvel) 0, cell count 0
bounding box: xmin inf inf inf, xmax -inf -inf -infm 
step 135, time 0.135000, maxvel 2.000000, total vol 181461, vol(u>maxvel) 0, cell count 0
bounding box: xmin inf inf inf, xmax -inf -inf -infm 
step 136, time 0.136000, maxvel 2.000000, total vol 181461, vol(u>maxvel) 0, cell count 0
bounding box: xmin inf inf inf, xmax -inf -inf -infm 
step 137, time 0.137000, maxvel 2.000000, total vol 181461, vol(u>maxvel) 0, cell count 0
bounding box: xmin inf inf inf, xmax -inf -inf -infm 
step 138, time 0.138000, maxvel 2.000000, total vol 181461, vol(u>maxvel) 0, cell count 0
bounding box: xmin inf inf inf, xmax -inf -inf -infm 
step 139, time 0.139000, maxvel 2.000000, total vol 181461, vol(u>maxvel) 0, cell count 0
bounding box: xmin inf inf inf, xmax -inf -inf -infm 
step 140, time 0.140000, maxvel 2.000000, total vol 181461, vol(u>maxvel) 0, cell count 0
bounding box: xmin inf inf inf, xmax -inf -inf -infm 
step 141, time 0.141000, maxvel 2.000000, total vol 181461, vol(u>maxvel) 0, cell count 0
bounding box: xmin inf inf inf, xmax -inf -inf -infm 
step 142, time 0.142000, maxvel 2.000000, total vol 181461, vol(u>maxvel) 0, cell count 0
bounding box: xmin inf inf inf, xmax -inf -inf -infm 
step 143, time 0.143000, maxvel 2.000000, total vol 181461, vol(u>maxvel) 0, cell count 0
bounding box: xmin inf inf inf, xmax -inf -inf -infm 
step 144, time 0.144000, maxvel 2.000000, total vol 181461, vol(u>maxvel) 0, cell count 0
bounding box: xmin inf inf inf, xmax -inf -inf -infm 
step 145, time 0.145000, maxvel 2.000000, total vol 181461, vol(u>maxvel) 0, cell count 0
bounding box: xmin inf inf inf, xmax -inf -inf -infm 
step 146, time 0.146000, maxvel 2.000000, total vol 181461, vol(u>maxvel) 0, cell count 0
bounding box: xmin inf inf inf, xmax -inf -inf -infm 
step 147, time 0.147000, maxvel 2.000000, total vol 181461, vol(u>maxvel) 0, cell count 0
bounding box: xmin inf inf inf, xmax -inf -inf -infm 
step 148, time 0.148000, maxvel 2.000000, total vol 181461, vol(u>maxvel) 0, cell count 0
bounding box: xmin inf inf inf, xmax -inf -inf -infm 
step 149, time 0.149000, maxvel 2.000000, total vol 181461, vol(u>maxvel) 0, cell count 0
bounding box: xmin inf inf inf, xmax -inf -inf -infm 
step 150, time 0.150000, maxvel 2.000000, total vol 181461, vol(u>maxvel) 0, cell count 0
bounding box: xmin inf inf inf, xmax -inf -inf -infm 
step 151, time 0.151000, maxvel 2.000000, total vol 181461, vol(u>maxvel) 0, cell count 0
bounding box: xmin inf inf inf, xmax -inf -inf -infm 
step 152, time 0.152000, maxvel 2.000000, total vol 181461, vol(u>maxvel) 0, cell count 0
bounding box: xmin inf inf inf, xmax -inf -inf -infm 
step 153, time 0.153000, maxvel 2.000000, total vol 181461, vol(u>maxvel) 0, cell count 0
bounding box: xmin inf inf inf, xmax -inf -inf -infm 
step 154, time 0.154000, maxvel 2.000000, total vol 181461, vol(u>maxvel) 0, cell count 0
bounding box: xmin inf inf inf, xmax -inf -inf -infm 
step 155, time 0.155000, maxvel 2.000000, total vol 181461, vol(u>maxvel) 0, cell count 0
bounding box: xmin inf inf inf, xmax -inf -inf -infm 
step 156, time 0.156000, maxvel 2.000000, total vol 181461, vol(u>maxvel) 0, cell count 0
bounding box: xmin inf inf inf, xmax -inf -inf -infm 
step 157, time 0.157000, maxvel 2.000000, total vol 181461, vol(u>maxvel) 0, cell count 0
bounding box: xmin inf inf inf, xmax -inf -inf -infm 
step 158, time 0.158000, maxvel 2.000000, total vol 181461, vol(u>maxvel) 0, cell count 0
bounding box: xmin inf inf inf, xmax -inf -inf -infm 
step 159, time 0.159000, maxvel 2.000000, total vol 181461, vol(u>maxvel) 0, cell count 0
bounding box: xmin inf inf inf, xmax -inf -inf -infm 
step 160, time 0.160000, maxvel 2.000000, total vol 181461, vol(u>maxvel) 0, cell count 0
bounding box: xmin inf inf inf, xmax -inf -inf -infm 
step 161, time 0.161000, maxvel 2.000000, total vol 181461, vol(u>maxvel) 0, cell count 0
bounding box: xmin inf inf inf, xmax -inf -inf -infm 
step 162, time 0.162000, maxvel 2.000000, total vol 181461, vol(u>maxvel) 0, cell count 0
bounding box: xmin inf inf inf, xmax -inf -inf -infm 
step 163, time 0.163000, maxvel 2.000000, total vol 181461, vol(u>maxvel) 0, cell count 0
bounding box: xmin inf inf inf, xmax -inf -inf -infm 
step 164, time 0.164000, maxvel 2.000000, total vol 181461, vol(u>maxvel) 0, cell count 0
bounding box: xmin inf inf inf, xmax -inf -inf -infm 
step 165, time 0.165000, maxvel 2.000000, total vol 181461, vol(u>maxvel) 0, cell count 0
bounding box: xmin inf inf inf, xmax -inf -inf -infm 
step 166, time 0.166000, maxvel 2.000000, total vol 181461, vol(u>maxvel) 0, cell count 0
bounding box: xmin inf inf inf, xmax -inf -inf -infm 
step 167, time 0.167000, maxvel 2.000000, total vol 181461, vol(u>maxvel) 0, cell count 0
bounding box: xmin inf inf inf, xmax -inf -inf -infm 
step 168, time 0.168000, maxvel 2.000000, total vol 181461, vol(u>maxvel) 0, cell count 0
bounding box: xmin inf inf inf, xmax -inf -inf -infm 
step 169, time 0.169000, maxvel 2.000000, total vol 181461, vol(u>maxvel) 0, cell count 0
bounding box: xmin inf inf inf, xmax -inf -inf -infm 
step 170, time 0.170000, maxvel 2.000000, total vol 181461, vol(u>maxvel) 0, cell count 0
bounding box: xmin inf inf inf, xmax -inf -inf -infm 
step 171, time 0.171000, maxvel 2.000000, total vol 181461, vol(u>maxvel) 0, cell count 0
bounding box: xmin inf inf inf, xmax -inf -inf -infm 
step 172, time 0.172000, maxvel 2.000000, total vol 181461, vol(u>maxvel) 0, cell count 0
bounding box: xmin inf inf inf, xmax -inf -inf -infm 
step 173, time 0.173000, maxvel 2.000000, total vol 181461, vol(u>maxvel) 0, cell count 0
bounding box: xmin inf inf inf, xmax -inf -inf -infm 
step 174, time 0.174000, maxvel 2.000000, total vol 181461, vol(u>maxvel) 0, cell count 0
bounding box: xmin inf inf inf, xmax -inf -inf -infm 
step 175, time 0.175000, maxvel 2.000000, total vol 181461, vol(u>maxvel) 0, cell count 0
bounding box: xmin inf inf inf, xmax -inf -inf -infm 
step 176, time 0.176000, maxvel 2.000000, total vol 181461, vol(u>maxvel) 0, cell count 0
bounding box: xmin inf inf inf, xmax -inf -inf -infm 
step 177, time 0.177000, maxvel 2.000000, total vol 181461, vol(u>maxvel) 0, cell count 0
bounding box: xmin inf inf inf, xmax -inf -inf -infm 
step 178, time 0.178000, maxvel 2.000000, total vol 181461, vol(u>maxvel) 0, cell count 0
bounding box: xmin inf inf inf, xmax -inf -inf -infm 
step 179, time 0.179000, maxvel 2.000000, total vol 181461, vol(u>maxvel) 0, cell count 0
bounding box: xmin inf inf inf, xmax -inf -inf -infm 
step 180, time 0.180000, maxvel 2.000000, total vol 181461, vol(u>maxvel) 0, cell count 0
bounding box: xmin inf inf inf, xmax -inf -inf -infm 
step 181, time 0.181000, maxvel 2.000000, total vol 181461, vol(u>maxvel) 0, cell count 0
bounding box: xmin inf inf inf, xmax -inf -inf -infm 
step 182, time 0.182000, maxvel 2.000000, total vol 181461, vol(u>maxvel) 0, cell count 0
bounding box: xmin inf inf inf, xmax -inf -inf -infm 
step 183, time 0.183000, maxvel 2.000000, total vol 181461, vol(u>maxvel) 0, cell count 0
bounding box: xmin inf inf inf, xmax -inf -inf -infm 
step 184, time 0.184000, maxvel 2.000000, total vol 181461, vol(u>maxvel) 0, cell count 0
bounding box: xmin inf inf inf, xmax -inf -inf -infm 
step 185, time 0.185000, maxvel 2.000000, total vol 181461, vol(u>maxvel) 0, cell count 0
bounding box: xmin inf inf inf, xmax -inf -inf -infm 
step 186, time 0.186000, maxvel 2.000000, total vol 181461, vol(u>maxvel) 0, cell count 0
bounding box: xmin inf inf inf, xmax -inf -inf -infm 
step 187, time 0.187000, maxvel 2.000000, total vol 181461, vol(u>maxvel) 0, cell count 0
bounding box: xmin inf inf inf, xmax -inf -inf -infm 
step 188, time 0.188000, maxvel 2.000000, total vol 181461, vol(u>maxvel) 0, cell count 0
bounding box: xmin inf inf inf, xmax -inf -inf -infm 
step 189, time 0.189000, maxvel 2.000000, total vol 181461, vol(u>maxvel) 0, cell count 0
bounding box: xmin inf inf inf, xmax -inf -inf -infm 
step 190, time 0.190000, maxvel 2.000000, total vol 181461, vol(u>maxvel) 0, cell count 0
bounding box: xmin inf inf inf, xmax -inf -inf -infm 
step 191, time 0.191000, maxvel 2.000000, total vol 181461, vol(u>maxvel) 0, cell count 0
bounding box: xmin inf inf inf, xmax -inf -inf -infm 
step 192, time 0.192000, maxvel 2.000000, total vol 181461, vol(u>maxvel) 0, cell count 0
bounding box: xmin inf inf inf, xmax -inf -inf -infm 
step 193, time 0.193000, maxvel 2.000000, total vol 181461, vol(u>maxvel) 0, cell count 0
bounding box: xmin inf inf inf, xmax -inf -inf -infm 
step 194, time 0.194000, maxvel 2.000000, total vol 181461, vol(u>maxvel) 0, cell count 0
bounding box: xmin inf inf inf, xmax -inf -inf -infm 
step 195, time 0.195000, maxvel 2.000000, total vol 181461, vol(u>maxvel) 0, cell count 0
bounding box: xmin inf inf inf, xmax -inf -inf -infm 
step 196, time 0.196000, maxvel 2.000000, total vol 181461, vol(u>maxvel) 0, cell count 0
bounding box: xmin inf inf inf, xmax -inf -inf -infm 
step 197, time 0.197000, maxvel 2.000000, total vol 181461, vol(u>maxvel) 0, cell count 0
bounding box: xmin inf inf inf, xmax -inf -inf -infm 
step 198, time 0.198000, maxvel 2.000000, total vol 181461, vol(u>maxvel) 0, cell count 0
bounding box: xmin inf inf inf, xmax -inf -inf -infm 
step 199, time 0.199000, maxvel 2.000000, total vol 181461, vol(u>maxvel) 0, cell count 0
bounding box: xmin inf inf inf, xmax -inf -inf -infm 
step 200, time 0.200000, maxvel 2.000000, total vol 181461, vol(u>maxvel) 0, cell count 0
bounding box: xmin inf inf inf, xmax -inf -inf -infm 
step 201, time 0.201000, maxvel 2.000000, total vol 181461, vol(u>maxvel) 0, cell count 0
bounding box: xmin inf inf inf, xmax -inf -inf -infm 
step 202, time 0.202000, maxvel 2.000000, total vol 181461, vol(u>maxvel) 0, cell count 0
bounding box: xmin inf inf inf, xmax -inf -inf -infm 
step 203, time 0.203000, maxvel 2.000000, total vol 181461, vol(u>maxvel) 0, cell count 0
bounding box: xmin inf inf inf, xmax -inf -inf -infm 
step 204, time 0.204000, maxvel 2.000000, total vol 181461, vol(u>maxvel) 0, cell count 0
bounding box: xmin inf inf inf, xmax -inf -inf -infm 
step 205, time 0.205000, maxvel 2.000000, total vol 181461, vol(u>maxvel) 0, cell count 0
bounding box: xmin inf inf inf, xmax -inf -inf -infm 
step 206, time 0.206000, maxvel 2.000000, total vol 181461, vol(u>maxvel) 0, cell count 0
bounding box: xmin inf inf inf, xmax -inf -inf -infm 
step 207, time 0.207000, maxvel 2.000000, total vol 181461, vol(u>maxvel) 0, cell count 0
bounding box: xmin inf inf inf, xmax -inf -inf -infm 
step 208, time 0.208000, maxvel 2.000000, total vol 181461, vol(u>maxvel) 0, cell count 0
bounding box: xmin inf inf inf, xmax -inf -inf -infm 
step 209, time 0.209000, maxvel 2.000000, total vol 181461, vol(u>maxvel) 0, cell count 0
bounding box: xmin inf inf inf, xmax -inf -inf -infm 
step 210, time 0.210000, maxvel 2.000000, total vol 181461, vol(u>maxvel) 0, cell count 0
bounding box: xmin inf inf inf, xmax -inf -inf -infm 
step 211, time 0.211000, maxvel 2.000000, total vol 181461, vol(u>maxvel) 0, cell count 0
bounding box: xmin inf inf inf, xmax -inf -inf -infm 
step 212, time 0.212000, maxvel 2.000000, total vol 181461, vol(u>maxvel) 0, cell count 0
bounding box: xmin inf inf inf, xmax -inf -inf -infm 
step 213, time 0.213000, maxvel 2.000000, total vol 181461, vol(u>maxvel) 0, cell count 0
bounding box: xmin inf inf inf, xmax -inf -inf -infm 
step 214, time 0.214000, maxvel 2.000000, total vol 181461, vol(u>maxvel) 0, cell count 0
bounding box: xmin inf inf inf, xmax -inf -inf -infm 
step 215, time 0.215000, maxvel 2.000000, total vol 181461, vol(u>maxvel) 0, cell count 0
bounding box: xmin inf inf inf, xmax -inf -inf -infm 
step 216, time 0.216000, maxvel 2.000000, total vol 181461, vol(u>maxvel) 0, cell count 0
bounding box: xmin inf inf inf, xmax -inf -inf -infm 
step 217, time 0.217000, maxvel 2.000000, total vol 181461, vol(u>maxvel) 0, cell count 0
bounding box: xmin inf inf inf, xmax -inf -inf -infm 
step 218, time 0.218000, maxvel 2.000000, total vol 181461, vol(u>maxvel) 0, cell count 0
bounding box: xmin inf inf inf, xmax -inf -inf -infm 
step 219, time 0.219000, maxvel 2.000000, total vol 181461, vol(u>maxvel) 0, cell count 0
bounding box: xmin inf inf inf, xmax -inf -inf -infm 
step 220, time 0.220000, maxvel 2.000000, total vol 181461, vol(u>maxvel) 0, cell count 0
bounding box: xmin inf inf inf, xmax -inf -inf -infm 
step 221, time 0.221000, maxvel 2.000000, total vol 181461, vol(u>maxvel) 0, cell count 0
bounding box: xmin inf inf inf, xmax -inf -inf -infm 
step 222, time 0.222000, maxvel 2.000000, total vol 181461, vol(u>maxvel) 0, cell count 0
bounding box: xmin inf inf inf, xmax -inf -inf -infm 
step 223, time 0.223000, maxvel 2.000000, total vol 181461, vol(u>maxvel) 0, cell count 0
bounding box: xmin inf inf inf, xmax -inf -inf -infm 
step 224, time 0.224000, maxvel 2.000000, total vol 181461, vol(u>maxvel) 0, cell count 0
bounding box: xmin inf inf inf, xmax -inf -inf -infm 
step 225, time 0.225000, maxvel 2.000000, total vol 181461, vol(u>maxvel) 0, cell count 0
bounding box: xmin inf inf inf, xmax -inf -inf -infm 
step 226, time 0.226000, maxvel 2.000000, total vol 181461, vol(u>maxvel) 0, cell count 0
bounding box: xmin inf inf inf, xmax -inf -inf -infm 
step 227, time 0.227000, maxvel 2.000000, total vol 181461, vol(u>maxvel) 0, cell count 0
bounding box: xmin inf inf inf, xmax -inf -inf -infm 
step 228, time 0.228000, maxvel 2.000000, total vol 181461, vol(u>maxvel) 0, cell count 0
bounding box: xmin inf inf inf, xmax -inf -inf -infm 
step 229, time 0.229000, maxvel 2.000000, total vol 181461, vol(u>maxvel) 0, cell count 0
bounding box: xmin inf inf inf, xmax -inf -inf -infm 
step 230, time 0.230000, maxvel 2.000000, total vol 181461, vol(u>maxvel) 0, cell count 0
bounding box: xmin inf inf inf, xmax -inf -inf -infm 
step 231, time 0.231000, maxvel 2.000000, total vol 181461, vol(u>maxvel) 0, cell count 0
bounding box: xmin inf inf inf, xmax -inf -inf -infm 
step 232, time 0.232000, maxvel 2.000000, total vol 181461, vol(u>maxvel) 0, cell count 0
bounding box: xmin inf inf inf, xmax -inf -inf -infm 
step 233, time 0.233000, maxvel 2.000000, total vol 181461, vol(u>maxvel) 0, cell count 0
bounding box: xmin inf inf inf, xmax -inf -inf -infm 
step 234, time 0.234000, maxvel 2.000000, total vol 181461, vol(u>maxvel) 0, cell count 0
bounding box: xmin inf inf inf, xmax -inf -inf -infm 
step 235, time 0.235000, maxvel 2.000000, total vol 181461, vol(u>maxvel) 0, cell count 0
bounding box: xmin inf inf inf, xmax -inf -inf -infm 
step 236, time 0.236000, maxvel 2.000000, total vol 181461, vol(u>maxvel) 0, cell count 0
bounding box: xmin inf inf inf, xmax -inf -inf -infm 
step 237, time 0.237000, maxvel 2.000000, total vol 181461, vol(u>maxvel) 0, cell count 0
bounding box: xmin inf inf inf, xmax -inf -inf -infm 
step 238, time 0.238000, maxvel 2.000000, total vol 181461, vol(u>maxvel) 0, cell count 0
bounding box: xmin inf inf inf, xmax -inf -inf -infm 
step 239, time 0.239000, maxvel 2.000000, total vol 181461, vol(u>maxvel) 0, cell count 0
bounding box: xmin inf inf inf, xmax -inf -inf -infm 
step 240, time 0.240000, maxvel 2.000000, total vol 181461, vol(u>maxvel) 0, cell count 0
bounding box: xmin inf inf inf, xmax -inf -inf -infm 
step 241, time 0.241000, maxvel 2.000000, total vol 181461, vol(u>maxvel) 0, cell count 0
bounding box: xmin inf inf inf, xmax -inf -inf -infm 
step 242, time 0.242000, maxvel 2.000000, total vol 181461, vol(u>maxvel) 0, cell count 0
bounding box: xmin inf inf inf, xmax -inf -inf -infm 
step 243, time 0.243000, maxvel 2.000000, total vol 181461, vol(u>maxvel) 0, cell count 0
bounding box: xmin inf inf inf, xmax -inf -inf -infm 
step 244, time 0.244000, maxvel 2.000000, total vol 181461, vol(u>maxvel) 0, cell count 0
bounding box: xmin inf inf inf, xmax -inf -inf -infm 
step 245, time 0.245000, maxvel 2.000000, total vol 181461, vol(u>maxvel) 0, cell count 0
bounding box: xmin inf inf inf, xmax -inf -inf -infm 
step 246, time 0.246000, maxvel 2.000000, total vol 181461, vol(u>maxvel) 0, cell count 0
bounding box: xmin inf inf inf, xmax -inf -inf -infm 
step 247, time 0.247000, maxvel 2.000000, total vol 181461, vol(u>maxvel) 0, cell count 0
bounding box: xmin inf inf inf, xmax -inf -inf -infm 
step 248, time 0.248000, maxvel 2.000000, total vol 181461, vol(u>maxvel) 0, cell count 0
bounding box: xmin inf inf inf, xmax -inf -inf -infm 
step 249, time 0.249000, maxvel 2.000000, total vol 181461, vol(u>maxvel) 0, cell count 0
bounding box: xmin inf inf inf, xmax -inf -inf -infm 
step 250, time 0.250000, maxvel 2.000000, total vol 181461, vol(u>maxvel) 0, cell count 0
bounding box: xmin inf inf inf, xmax -inf -inf -infm 
step 251, time 0.251000, maxvel 2.000000, total vol 181461, vol(u>maxvel) 0, cell count 0
bounding box: xmin inf inf inf, xmax -inf -inf -infm 
step 252, time 0.252000, maxvel 2.000000, total vol 181461, vol(u>maxvel) 7.46441e-06, cell count 1
bounding box: xmin inf inf inf, xmax -inf -inf -infm 
step 253, time 0.253000, maxvel 2.000000, total vol 181461, vol(u>maxvel) 1.49086e-05, cell count 2
bounding box: xmin inf inf inf, xmax -inf -inf -infm 
step 254, time 0.254000, maxvel 2.000000, total vol 181461, vol(u>maxvel) 2.23745e-05, cell count 3
bounding box: xmin inf inf inf, xmax -inf -inf -infm 
step 255, time 0.255000, maxvel 2.000000, total vol 181461, vol(u>maxvel) 2.23745e-05, cell count 3
bounding box: xmin inf inf inf, xmax -inf -inf -infm 
step 256, time 0.256000, maxvel 2.000000, total vol 181461, vol(u>maxvel) 2.97975e-05, cell count 4
bounding box: xmin inf inf inf, xmax -inf -inf -infm 
step 257, time 0.257000, maxvel 2.000000, total vol 181461, vol(u>maxvel) 5.212e-05, cell count 7
bounding box: xmin inf inf inf, xmax -inf -inf -infm 
step 258, time 0.258000, maxvel 2.000000, total vol 181461, vol(u>maxvel) 7.44322e-05, cell count 10
bounding box: xmin inf inf inf, xmax -inf -inf -infm 
step 259, time 0.259000, maxvel 2.000000, total vol 181461, vol(u>maxvel) 0.000115, cell count 15
bounding box: xmin inf inf inf, xmax -inf -inf -infm 
step 260, time 0.260000, maxvel 2.000000, total vol 181461, vol(u>maxvel) 0.000153893, cell count 20
bounding box: xmin inf inf inf, xmax -inf -inf -infm 
step 261, time 0.261000, maxvel 2.000000, total vol 181461, vol(u>maxvel) 0.000223253, cell count 28
bounding box: xmin inf inf inf, xmax -inf -inf -infm 
step 262, time 0.262000, maxvel 2.000000, total vol 181461, vol(u>maxvel) 0.000238147, cell count 30
bounding box: xmin inf inf inf, xmax -inf -inf -infm 
step 263, time 0.263000, maxvel 2.000000, total vol 181461, vol(u>maxvel) 0.000289406, cell count 36
bounding box: xmin inf inf inf, xmax -inf -inf -infm 
step 264, time 0.264000, maxvel 2.000000, total vol 181461, vol(u>maxvel) 0.000315003, cell count 39
bounding box: xmin inf inf inf, xmax -inf -inf -infm 
step 265, time 0.265000, maxvel 2.000000, total vol 181461, vol(u>maxvel) 0.000336317, cell count 42
bounding box: xmin inf inf inf, xmax -inf -inf -infm 
step 266, time 0.266000, maxvel 2.000000, total vol 181461, vol(u>maxvel) 0.000369423, cell count 46
bounding box: xmin inf inf inf, xmax -inf -inf -infm 
step 267, time 0.267000, maxvel 2.000000, total vol 181461, vol(u>maxvel) 0.000405792, cell count 50
bounding box: xmin inf inf inf, xmax -inf -inf -infm 
step 268, time 0.268000, maxvel 2.000000, total vol 181461, vol(u>maxvel) 0.000463161, cell count 56
bounding box: xmin inf inf inf, xmax -inf -inf -infm 
step 269, time 0.269000, maxvel 2.000000, total vol 181461, vol(u>maxvel) 0.000562106, cell count 66
bounding box: xmin inf inf inf, xmax -inf -inf -infm 
step 270, time 0.270000, maxvel 2.000000, total vol 181461, vol(u>maxvel) 0.000611997, cell count 72
bounding box: xmin inf inf inf, xmax -inf -inf -infm 
step 271, time 0.271000, maxvel 2.000000, total vol 181461, vol(u>maxvel) 0.000711517, cell count 83
bounding box: xmin inf inf inf, xmax -inf -inf -infm 
step 272, time 0.272000, maxvel 2.000000, total vol 181461, vol(u>maxvel) 0.000756218, cell count 88
bounding box: xmin inf inf inf, xmax -inf -inf -infm 
step 273, time 0.273000, maxvel 2.000000, total vol 181461, vol(u>maxvel) 0.000794598, cell count 92
bounding box: xmin inf inf inf, xmax -inf -inf -infm 
step 274, time 0.274000, maxvel 2.000000, total vol 181461, vol(u>maxvel) 0.00083802, cell count 97
bounding box: xmin inf inf inf, xmax -inf -inf -infm 
step 275, time 0.275000, maxvel 2.000000, total vol 181461, vol(u>maxvel) 0.000878255, cell count 101
bounding box: xmin inf inf inf, xmax -inf -inf -infm 
step 276, time 0.276000, maxvel 2.000000, total vol 181461, vol(u>maxvel) 0.000894757, cell count 103
bounding box: xmin inf inf inf, xmax -inf -inf -infm 
step 277, time 0.277000, maxvel 2.000000, total vol 181461, vol(u>maxvel) 0.000944753, cell count 108
bounding box: xmin inf inf inf, xmax -inf -inf -infm 
step 278, time 0.278000, maxvel 2.000000, total vol 181461, vol(u>maxvel) 0.00100914, cell count 115
bounding box: xmin inf inf inf, xmax -inf -inf -infm 
step 279, time 0.279000, maxvel 2.000000, total vol 181461, vol(u>maxvel) 0.00103051, cell count 118
bounding box: xmin inf inf inf, xmax -inf -inf -infm 
step 280, time 0.280000, maxvel 2.000000, total vol 181461, vol(u>maxvel) 0.00110512, cell count 127
bounding box: xmin inf inf inf, xmax -inf -inf -infm 
step 281, time 0.281000, maxvel 2.000000, total vol 181461, vol(u>maxvel) 0.00118627, cell count 136
bounding box: xmin inf inf inf, xmax -inf -inf -infm 
step 282, time 0.282000, maxvel 2.000000, total vol 181461, vol(u>maxvel) 0.00125778, cell count 144
bounding box: xmin inf inf inf, xmax -inf -inf -infm 
step 283, time 0.283000, maxvel 2.000000, total vol 181461, vol(u>maxvel) 0.00131626, cell count 150
bounding box: xmin inf inf inf, xmax -inf -inf -infm 
step 284, time 0.284000, maxvel 2.000000, total vol 181461, vol(u>maxvel) 0.00138088, cell count 157
bounding box: xmin inf inf inf, xmax -inf -inf -infm 
step 285, time 0.285000, maxvel 2.000000, total vol 181461, vol(u>maxvel) 0.00144431, cell count 164
bounding box: xmin inf inf inf, xmax -inf -inf -infm 
step 286, time 0.286000, maxvel 2.000000, total vol 181461, vol(u>maxvel) 0.00150563, cell count 171
bounding box: xmin inf inf inf, xmax -inf -inf -infm 
step 287, time 0.287000, maxvel 2.000000, total vol 181461, vol(u>maxvel) 0.00156386, cell count 177
bounding box: xmin inf inf inf, xmax -inf -inf -infm 
step 288, time 0.288000, maxvel 2.000000, total vol 181461, vol(u>maxvel) 0.00162113, cell count 184
bounding box: xmin inf inf inf, xmax -inf -inf -infm 
step 289, time 0.289000, maxvel 2.000000, total vol 181461, vol(u>maxvel) 0.00166659, cell count 189
bounding box: xmin inf inf inf, xmax -inf -inf -infm 
step 290, time 0.290000, maxvel 2.000000, total vol 181461, vol(u>maxvel) 0.00179939, cell count 201
bounding box: xmin inf inf inf, xmax -inf -inf -infm 
step 291, time 0.291000, maxvel 2.000000, total vol 181461, vol(u>maxvel) 0.00194502, cell count 214
bounding box: xmin inf inf inf, xmax -inf -inf -infm 
step 292, time 0.292000, maxvel 2.000000, total vol 181461, vol(u>maxvel) 0.002043, cell count 223
bounding box: xmin inf inf inf, xmax -inf -inf -infm 
step 293, time 0.293000, maxvel 2.000000, total vol 181461, vol(u>maxvel) 0.00209157, cell count 228
bounding box: xmin inf inf inf, xmax -inf -inf -infm 
step 294, time 0.294000, maxvel 2.000000, total vol 181461, vol(u>maxvel) 0.00217835, cell count 236
bounding box: xmin inf inf inf, xmax -inf -inf -infm 
step 295, time 0.295000, maxvel 2.000000, total vol 181461, vol(u>maxvel) 0.00230016, cell count 246
bounding box: xmin inf inf inf, xmax -inf -inf -infm 
step 296, time 0.296000, maxvel 2.000000, total vol 181461, vol(u>maxvel) 0.00237829, cell count 254
bounding box: xmin inf inf inf, xmax -inf -inf -infm 
step 297, time 0.297000, maxvel 2.000000, total vol 181461, vol(u>maxvel) 0.00244406, cell count 260
bounding box: xmin inf inf inf, xmax -inf -inf -infm 
step 298, time 0.298000, maxvel 2.000000, total vol 181461, vol(u>maxvel) 0.00250908, cell count 266
bounding box: xmin inf inf inf, xmax -inf -inf -infm 
step 299, time 0.299000, maxvel 2.000000, total vol 181461, vol(u>maxvel) 0.00260414, cell count 275
bounding box: xmin inf inf inf, xmax -inf -inf -infm 
step 300, time 0.300000, maxvel 2.000000, total vol 181461, vol(u>maxvel) 0.00265096, cell count 279
bounding box: xmin inf inf inf, xmax -inf -inf -infm 
step 301, time 0.301000, maxvel 2.000000, total vol 181461, vol(u>maxvel) 0.00268085, cell count 282
bounding box: xmin inf inf inf, xmax -inf -inf -infm 
step 302, time 0.302000, maxvel 2.000000, total vol 181461, vol(u>maxvel) 0.0027668, cell count 290
bounding box: xmin inf inf inf, xmax -inf -inf -infm 
step 303, time 0.303000, maxvel 2.000000, total vol 181461, vol(u>maxvel) 0.00283216, cell count 296
bounding box: xmin inf inf inf, xmax -inf -inf -infm 
step 304, time 0.304000, maxvel 2.000000, total vol 181461, vol(u>maxvel) 0.0028939, cell count 302
bounding box: xmin inf inf inf, xmax -inf -inf -infm 
step 305, time 0.305000, maxvel 2.000000, total vol 181461, vol(u>maxvel) 0.00292937, cell count 305
bounding box: xmin inf inf inf, xmax -inf -inf -infm 
step 306, time 0.306000, maxvel 2.000000, total vol 181461, vol(u>maxvel) 0.00301385, cell count 312
bounding box: xmin inf inf inf, xmax -inf -inf -infm 
step 307, time 0.307000, maxvel 2.000000, total vol 181461, vol(u>maxvel) 0.00303477, cell count 313
bounding box: xmin inf inf inf, xmax -inf -inf -infm 
step 308, time 0.308000, maxvel 2.000000, total vol 181461, vol(u>maxvel) 0.0030876, cell count 319
bounding box: xmin inf inf inf, xmax -inf -inf -infm 
step 309, time 0.309000, maxvel 2.000000, total vol 181461, vol(u>maxvel) 0.00314049, cell count 324
bounding box: xmin inf inf inf, xmax -inf -inf -infm 
step 310, time 0.310000, maxvel 2.000000, total vol 181461, vol(u>maxvel) 0.00317069, cell count 326
bounding box: xmin inf inf inf, xmax -inf -inf -infm 
step 311, time 0.311000, maxvel 2.000000, total vol 181461, vol(u>maxvel) 0.0032122, cell count 329
bounding box: xmin inf inf inf, xmax -inf -inf -infm 
step 312, time 0.312000, maxvel 2.000000, total vol 181461, vol(u>maxvel) 0.00321965, cell count 330
bounding box: xmin inf inf inf, xmax -inf -inf -infm 
step 313, time 0.313000, maxvel 2.000000, total vol 181461, vol(u>maxvel) 0.00324673, cell count 332
bounding box: xmin inf inf inf, xmax -inf -inf -infm 
step 314, time 0.314000, maxvel 2.000000, total vol 181461, vol(u>maxvel) 0.0032602, cell count 334
bounding box: xmin inf inf inf, xmax -inf -inf -infm 
step 315, time 0.315000, maxvel 2.000000, total vol 181461, vol(u>maxvel) 0.003296, cell count 337
bounding box: xmin inf inf inf, xmax -inf -inf -infm 
step 316, time 0.316000, maxvel 2.000000, total vol 181461, vol(u>maxvel) 0.00333737, cell count 342
bounding box: xmin inf inf inf, xmax -inf -inf -infm 
step 317, time 0.317000, maxvel 2.000000, total vol 181461, vol(u>maxvel) 0.00336139, cell count 344
bounding box: xmin inf inf inf, xmax -inf -inf -infm 
step 318, time 0.318000, maxvel 2.000000, total vol 181461, vol(u>maxvel) 0.00340358, cell count 347
bounding box: xmin inf inf inf, xmax -inf -inf -infm 
step 319, time 0.319000, maxvel 2.000000, total vol 181461, vol(u>maxvel) 0.00345728, cell count 352
bounding box: xmin inf inf inf, xmax -inf -inf -infm 
step 320, time 0.320000, maxvel 2.000000, total vol 181461, vol(u>maxvel) 0.00347669, cell count 354
bounding box: xmin inf inf inf, xmax -inf -inf -infm 
step 321, time 0.321000, maxvel 2.000000, total vol 181461, vol(u>maxvel) 0.00351537, cell count 358
bounding box: xmin inf inf inf, xmax -inf -inf -infm 
step 322, time 0.322000, maxvel 2.000000, total vol 181461, vol(u>maxvel) 0.00352654, cell count 359
bounding box: xmin inf inf inf, xmax -inf -inf -infm 
step 323, time 0.323000, maxvel 2.000000, total vol 181461, vol(u>maxvel) 0.00358658, cell count 364
bounding box: xmin inf inf inf, xmax -inf -inf -infm 
step 324, time 0.324000, maxvel 2.000000, total vol 181461, vol(u>maxvel) 0.00362353, cell count 368
bounding box: xmin inf inf inf, xmax -inf -inf -infm 
step 325, time 0.325000, maxvel 2.000000, total vol 181461, vol(u>maxvel) 0.00363034, cell count 369
bounding box: xmin inf inf inf, xmax -inf -inf -infm 
step 326, time 0.326000, maxvel 2.000000, total vol 181461, vol(u>maxvel) 0.00365069, cell count 371
bounding box: xmin inf inf inf, xmax -inf -inf -infm 
step 327, time 0.327000, maxvel 2.000000, total vol 181461, vol(u>maxvel) 0.00367171, cell count 374
bounding box: xmin inf inf inf, xmax -inf -inf -infm 
step 328, time 0.328000, maxvel 2.000000, total vol 181461, vol(u>maxvel) 0.00370796, cell count 379
bounding box: xmin inf inf inf, xmax -inf -inf -infm 
step 329, time 0.329000, maxvel 2.000000, total vol 181461, vol(u>maxvel) 0.00378363, cell count 387
bounding box: xmin inf inf inf, xmax -inf -inf -infm 
step 330, time 0.330000, maxvel 2.000000, total vol 181461, vol(u>maxvel) 0.00381131, cell count 391
bounding box: xmin inf inf inf, xmax -inf -inf -infm 
step 331, time 0.331000, maxvel 2.000000, total vol 181461, vol(u>maxvel) 0.00387401, cell count 397
bounding box: xmin inf inf inf, xmax -inf -inf -infm 
step 332, time 0.332000, maxvel 2.000000, total vol 181461, vol(u>maxvel) 0.00392893, cell count 404
bounding box: xmin inf inf inf, xmax -inf -inf -infm 
step 333, time 0.333000, maxvel 2.000000, total vol 181461, vol(u>maxvel) 0.00394185, cell count 406
bounding box: xmin inf inf inf, xmax -inf -inf -infm 
step 334, time 0.334000, maxvel 2.000000, total vol 181461, vol(u>maxvel) 0.00399421, cell count 411
bounding box: xmin inf inf inf, xmax -inf -inf -infm 
step 335, time 0.335000, maxvel 2.000000, total vol 181461, vol(u>maxvel) 0.00402083, cell count 414
bounding box: xmin inf inf inf, xmax -inf -inf -infm 
step 336, time 0.336000, maxvel 2.000000, total vol 181461, vol(u>maxvel) 0.00403956, cell count 416
bounding box: xmin inf inf inf, xmax -inf -inf -infm 
step 337, time 0.337000, maxvel 2.000000, total vol 181461, vol(u>maxvel) 0.00406434, cell count 420
bounding box: xmin inf inf inf, xmax -inf -inf -infm 
step 338, time 0.338000, maxvel 2.000000, total vol 181461, vol(u>maxvel) 0.00409828, cell count 425
bounding box: xmin inf inf inf, xmax -inf -inf -infm 
step 339, time 0.339000, maxvel 2.000000, total vol 181461, vol(u>maxvel) 0.00411963, cell count 428
bounding box: xmin inf inf inf, xmax -inf -inf -infm 
step 340, time 0.340000, maxvel 2.000000, total vol 181461, vol(u>maxvel) 0.0041307, cell count 430
bounding box: xmin inf inf inf, xmax -inf -inf -infm 
step 341, time 0.341000, maxvel 2.000000, total vol 181461, vol(u>maxvel) 0.00415161, cell count 433
bounding box: xmin inf inf inf, xmax -inf -inf -infm 
step 342, time 0.342000, maxvel 2.000000, total vol 181461, vol(u>maxvel) 0.00418867, cell count 437
bounding box: xmin inf inf inf, xmax -inf -inf -infm 
step 343, time 0.343000, maxvel 2.000000, total vol 181461, vol(u>maxvel) 0.00420161, cell count 439
bounding box: xmin inf inf inf, xmax -inf -inf -infm 
step 344, time 0.344000, maxvel 2.000000, total vol 181461, vol(u>maxvel) 0.00423495, cell count 444
bounding box: xmin inf inf inf, xmax -inf -inf -infm 
step 345, time 0.345000, maxvel 2.000000, total vol 181461, vol(u>maxvel) 0.00424849, cell count 445
bounding box: xmin inf inf inf, xmax -inf -inf -infm 
step 346, time 0.346000, maxvel 2.000000, total vol 181461, vol(u>maxvel) 0.00424849, cell count 445
bounding box: xmin inf inf inf, xmax -inf -inf -infm 
step 347, time 0.347000, maxvel 2.000000, total vol 181461, vol(u>maxvel) 0.00425643, cell count 446
bounding box: xmin inf inf inf, xmax -inf -inf -infm 
step 348, time 0.348000, maxvel 2.000000, total vol 181461, vol(u>maxvel) 0.00427735, cell count 448
bounding box: xmin inf inf inf, xmax -inf -inf -infm 
step 349, time 0.349000, maxvel 2.000000, total vol 181461, vol(u>maxvel) 0.00429454, cell count 451
bounding box: xmin inf inf inf, xmax -inf -inf -infm 
step 350, time 0.350000, maxvel 2.000000, total vol 181461, vol(u>maxvel) 0.00433388, cell count 455
bounding box: xmin inf inf inf, xmax -inf -inf -infm 
step 351, time 0.351000, maxvel 2.000000, total vol 181461, vol(u>maxvel) 0.00436183, cell count 458
bounding box: xmin inf inf inf, xmax -inf -inf -infm 
step 352, time 0.352000, maxvel 2.000000, total vol 181461, vol(u>maxvel) 0.00437719, cell count 460
bounding box: xmin inf inf inf, xmax -inf -inf -infm 
step 353, time 0.353000, maxvel 2.000000, total vol 181461, vol(u>maxvel) 0.00442812, cell count 466
bounding box: xmin inf inf inf, xmax -inf -inf -infm 
step 354, time 0.354000, maxvel 2.000000, total vol 181461, vol(u>maxvel) 0.00447438, cell count 470
bounding box: xmin inf inf inf, xmax -inf -inf -infm 
step 355, time 0.355000, maxvel 2.000000, total vol 181461, vol(u>maxvel) 0.00450346, cell count 474
bounding box: xmin inf inf inf, xmax -inf -inf -infm 
step 356, time 0.356000, maxvel 2.000000, total vol 181461, vol(u>maxvel) 0.00452578, cell count 477
bounding box: xmin inf inf inf, xmax -inf -inf -infm 
step 357, time 0.357000, maxvel 2.000000, total vol 181461, vol(u>maxvel) 0.00457697, cell count 484
bounding box: xmin inf inf inf, xmax -inf -inf -infm 
step 358, time 0.358000, maxvel 2.000000, total vol 181461, vol(u>maxvel) 0.00463227, cell count 490
bounding box: xmin inf inf inf, xmax -inf -inf -infm 
step 359, time 0.359000, maxvel 2.000000, total vol 181461, vol(u>maxvel) 0.00463679, cell count 491
bounding box: xmin inf inf inf, xmax -inf -inf -infm 
step 360, time 0.360000, maxvel 2.000000, total vol 181461, vol(u>maxvel) 0.00466305, cell count 494
bounding box: xmin inf inf inf, xmax -inf -inf -infm 
step 361, time 0.361000, maxvel 2.000000, total vol 181461, vol(u>maxvel) 0.00469252, cell count 498
bounding box: xmin inf inf inf, xmax -inf -inf -infm 
step 362, time 0.362000, maxvel 2.000000, total vol 181461, vol(u>maxvel) 0.00470095, cell count 499
bounding box: xmin inf inf inf, xmax -inf -inf -infm 
step 363, time 0.363000, maxvel 2.000000, total vol 181461, vol(u>maxvel) 0.0047179, cell count 500
bounding box: xmin inf inf inf, xmax -inf -inf -infm 
step 364, time 0.364000, maxvel 2.000000, total vol 181461, vol(u>maxvel) 0.00473136, cell count 502
bounding box: xmin inf inf inf, xmax -inf -inf -infm 
step 365, time 0.365000, maxvel 2.000000, total vol 181461, vol(u>maxvel) 0.00474815, cell count 505
bounding box: xmin inf inf inf, xmax -inf -inf -infm 
step 366, time 0.366000, maxvel 2.000000, total vol 181461, vol(u>maxvel) 0.00478918, cell count 509
bounding box: xmin inf inf inf, xmax -inf -inf -infm 
step 367, time 0.367000, maxvel 2.000000, total vol 181461, vol(u>maxvel) 0.00481078, cell count 512
bounding box: xmin inf inf inf, xmax -inf -inf -infm 
step 368, time 0.368000, maxvel 2.000000, total vol 181461, vol(u>maxvel) 0.0048315, cell count 515
bounding box: xmin inf inf inf, xmax -inf -inf -infm 
step 369, time 0.369000, maxvel 2.000000, total vol 181461, vol(u>maxvel) 0.00486075, cell count 518
bounding box: xmin inf inf inf, xmax -inf -inf -infm 
step 370, time 0.370000, maxvel 2.000000, total vol 181461, vol(u>maxvel) 0.00492374, cell count 525
bounding box: xmin inf inf inf, xmax -inf -inf -infm 
step 371, time 0.371000, maxvel 2.000000, total vol 181461, vol(u>maxvel) 0.00494707, cell count 527
bounding box: xmin inf inf inf, xmax -inf -inf -infm 
step 372, time 0.372000, maxvel 2.000000, total vol 181461, vol(u>maxvel) 0.00497909, cell count 531
bounding box: xmin inf inf inf, xmax -inf -inf -infm 
step 373, time 0.373000, maxvel 2.000000, total vol 181461, vol(u>maxvel) 0.00499959, cell count 534
bounding box: xmin inf inf inf, xmax -inf -inf -infm 
step 374, time 0.374000, maxvel 2.000000, total vol 181461, vol(u>maxvel) 0.00501621, cell count 536
bounding box: xmin inf inf inf, xmax -inf -inf -infm 
step 375, time 0.375000, maxvel 2.000000, total vol 181461, vol(u>maxvel) 0.00506314, cell count 541
bounding box: xmin inf inf inf, xmax -inf -inf -infm 
step 376, time 0.376000, maxvel 2.000000, total vol 181461, vol(u>maxvel) 0.00514895, cell count 547
bounding box: xmin inf inf inf, xmax -inf -inf -infm 
step 377, time 0.377000, maxvel 2.000000, total vol 181461, vol(u>maxvel) 0.00516313, cell count 549
bounding box: xmin inf inf inf, xmax -inf -inf -infm 
step 378, time 0.378000, maxvel 2.000000, total vol 181461, vol(u>maxvel) 0.00518441, cell count 552
bounding box: xmin inf inf inf, xmax -inf -inf -infm 
step 379, time 0.379000, maxvel 2.000000, total vol 181461, vol(u>maxvel) 0.00521006, cell count 555
bounding box: xmin inf inf inf, xmax -inf -inf -infm 
step 380, time 0.380000, maxvel 2.000000, total vol 181461, vol(u>maxvel) 0.00525528, cell count 559
bounding box: xmin inf inf inf, xmax -inf -inf -infm 
step 381, time 0.381000, maxvel 2.000000, total vol 181461, vol(u>maxvel) 0.00527726, cell count 561
bounding box: xmin inf inf inf, xmax -inf -inf -infm 
step 382, time 0.382000, maxvel 2.000000, total vol 181461, vol(u>maxvel) 0.00536265, cell count 568
bounding box: xmin inf inf inf, xmax -inf -inf -infm 
step 383, time 0.383000, maxvel 2.000000, total vol 181461, vol(u>maxvel) 0.00539567, cell count 570
bounding box: xmin inf inf inf, xmax -inf -inf -infm 
step 384, time 0.384000, maxvel 2.000000, total vol 181461, vol(u>maxvel) 0.00540115, cell count 571
bounding box: xmin inf inf inf, xmax -inf -inf -infm 
step 385, time 0.385000, maxvel 2.000000, total vol 181461, vol(u>maxvel) 0.00544761, cell count 575
bounding box: xmin inf inf inf, xmax -inf -inf -infm 
step 386, time 0.386000, maxvel 2.000000, total vol 181461, vol(u>maxvel) 0.00547732, cell count 578
bounding box: xmin inf inf inf, xmax -inf -inf -infm 
step 387, time 0.387000, maxvel 2.000000, total vol 181461, vol(u>maxvel) 0.00549024, cell count 580
bounding box: xmin inf inf inf, xmax -inf -inf -infm 
step 388, time 0.388000, maxvel 2.000000, total vol 181461, vol(u>maxvel) 0.00552207, cell count 584
bounding box: xmin inf inf inf, xmax -inf -inf -infm 
step 389, time 0.389000, maxvel 2.000000, total vol 181461, vol(u>maxvel) 0.00553425, cell count 586
bounding box: xmin inf inf inf, xmax -inf -inf -infm 
step 390, time 0.390000, maxvel 2.000000, total vol 181461, vol(u>maxvel) 0.00555803, cell count 589
bounding box: xmin inf inf inf, xmax -inf -inf -infm 
step 391, time 0.391000, maxvel 2.000000, total vol 181461, vol(u>maxvel) 0.00558244, cell count 591
bounding box: xmin inf inf inf, xmax -inf -inf -infm 
step 392, time 0.392000, maxvel 2.000000, total vol 181461, vol(u>maxvel) 0.00562386, cell count 594
bounding box: xmin inf inf inf, xmax -inf -inf -infm 
step 393, time 0.393000, maxvel 2.000000, total vol 181461, vol(u>maxvel) 0.00567813, cell count 601
bounding box: xmin inf inf inf, xmax -inf -inf -infm 
step 394, time 0.394000, maxvel 2.000000, total vol 181461, vol(u>maxvel) 0.00570614, cell count 604
bounding box: xmin inf inf inf, xmax -inf -inf -infm 
step 395, time 0.395000, maxvel 2.000000, total vol 181461, vol(u>maxvel) 0.00575736, cell count 609
bounding box: xmin inf inf inf, xmax -inf -inf -infm 
step 396, time 0.396000, maxvel 2.000000, total vol 181461, vol(u>maxvel) 0.00578292, cell count 611
bounding box: xmin inf inf inf, xmax -inf -inf -infm 
step 397, time 0.397000, maxvel 2.000000, total vol 181461, vol(u>maxvel) 0.00582719, cell count 615
bounding box: xmin inf inf inf, xmax -inf -inf -infm 
step 398, time 0.398000, maxvel 2.000000, total vol 181461, vol(u>maxvel) 0.00587542, cell count 620
bounding box: xmin inf inf inf, xmax -inf -inf -infm 
step 399, time 0.399000, maxvel 2.000000, total vol 181461, vol(u>maxvel) 0.00588374, cell count 621
bounding box: xmin inf inf inf, xmax -inf -inf -infm 
step 400, time 0.400000, maxvel 2.000000, total vol 181461, vol(u>maxvel) 0.00588374, cell count 621
bounding box: xmin inf inf inf, xmax -inf -inf -infm 
step 401, time 0.401000, maxvel 2.000000, total vol 181461, vol(u>maxvel) 0.00592709, cell count 624
bounding box: xmin inf inf inf, xmax -inf -inf -infm 
step 402, time 0.402000, maxvel 2.000000, total vol 181461, vol(u>maxvel) 0.00597628, cell count 626
bounding box: xmin inf inf inf, xmax -inf -inf -infm 
step 403, time 0.403000, maxvel 2.000000, total vol 181461, vol(u>maxvel) 0.00603432, cell count 632
bounding box: xmin inf inf inf, xmax -inf -inf -infm 
step 404, time 0.404000, maxvel 2.000000, total vol 181461, vol(u>maxvel) 0.00603979, cell count 633
bounding box: xmin inf inf inf, xmax -inf -inf -infm 
step 405, time 0.405000, maxvel 2.000000, total vol 181461, vol(u>maxvel) 0.00604808, cell count 634
bounding box: xmin inf inf inf, xmax -inf -inf -infm 
step 406, time 0.406000, maxvel 2.000000, total vol 181461, vol(u>maxvel) 0.0060673, cell count 637
bounding box: xmin inf inf inf, xmax -inf -inf -infm 
step 407, time 0.407000, maxvel 2.000000, total vol 181461, vol(u>maxvel) 0.0060756, cell count 638
bounding box: xmin inf inf inf, xmax -inf -inf -infm 
step 408, time 0.408000, maxvel 2.000000, total vol 181461, vol(u>maxvel) 0.00610299, cell count 641
bounding box: xmin inf inf inf, xmax -inf -inf -infm 
step 409, time 0.409000, maxvel 2.000000, total vol 181461, vol(u>maxvel) 0.00610904, cell count 642
bounding box: xmin inf inf inf, xmax -inf -inf -infm 
step 410, time 0.410000, maxvel 2.000000, total vol 181461, vol(u>maxvel) 0.00614435, cell count 647
bounding box: xmin inf inf inf, xmax -inf -inf -infm 
step 411, time 0.411000, maxvel 2.000000, total vol 181461, vol(u>maxvel) 0.00620276, cell count 653
bounding box: xmin inf inf inf, xmax -inf -inf -infm 
step 412, time 0.412000, maxvel 2.000000, total vol 181461, vol(u>maxvel) 0.0062137, cell count 655
bounding box: xmin inf inf inf, xmax -inf -inf -infm 
step 413, time 0.413000, maxvel 2.000000, total vol 181461, vol(u>maxvel) 0.00624207, cell count 658
bounding box: xmin inf inf inf, xmax -inf -inf -infm 
step 414, time 0.414000, maxvel 2.000000, total vol 181461, vol(u>maxvel) 0.00625875, cell count 659
bounding box: xmin inf inf inf, xmax -inf -inf -infm 
step 415, time 0.415000, maxvel 2.000000, total vol 181461, vol(u>maxvel) 0.00627543, cell count 660
bounding box: xmin inf inf inf, xmax -inf -inf -infm 
step 416, time 0.416000, maxvel 2.000000, total vol 181461, vol(u>maxvel) 0.00632638, cell count 664
bounding box: xmin inf inf inf, xmax -inf -inf -infm 
step 417, time 0.417000, maxvel 2.000000, total vol 181461, vol(u>maxvel) 0.00633911, cell count 665
bounding box: xmin inf inf inf, xmax -inf -inf -infm 
step 418, time 0.418000, maxvel 2.000000, total vol 181461, vol(u>maxvel) 0.00637287, cell count 668
bounding box: xmin inf inf inf, xmax -inf -inf -infm 
step 419, time 0.419000, maxvel 2.000000, total vol 181461, vol(u>maxvel) 0.00638282, cell count 669
bounding box: xmin inf inf inf, xmax -inf -inf -infm 
step 420, time 0.420000, maxvel 2.000000, total vol 181461, vol(u>maxvel) 0.00639435, cell count 671
bounding box: xmin inf inf inf, xmax -inf -inf -infm 
step 421, time 0.421000, maxvel 2.000000, total vol 181461, vol(u>maxvel) 0.00639435, cell count 671
bounding box: xmin inf inf inf, xmax -inf -inf -infm 
step 422, time 0.422000, maxvel 2.000000, total vol 181461, vol(u>maxvel) 0.00641323, cell count 673
bounding box: xmin inf inf inf, xmax -inf -inf -infm 
step 423, time 0.423000, maxvel 2.000000, total vol 181461, vol(u>maxvel) 0.00641323, cell count 673
bounding box: xmin inf inf inf, xmax -inf -inf -infm 
step 424, time 0.424000, maxvel 2.000000, total vol 181461, vol(u>maxvel) 0.00641323, cell count 673
bounding box: xmin inf inf inf, xmax -inf -inf -infm 
step 425, time 0.425000, maxvel 2.000000, total vol 181461, vol(u>maxvel) 0.00641323, cell count 673
bounding box: xmin inf inf inf, xmax -inf -inf -infm 
step 426, time 0.426000, maxvel 2.000000, total vol 181461, vol(u>maxvel) 0.00642149, cell count 674
bounding box: xmin inf inf inf, xmax -inf -inf -infm 
step 427, time 0.427000, maxvel 2.000000, total vol 181461, vol(u>maxvel) 0.00645037, cell count 678
bounding box: xmin inf inf inf, xmax -inf -inf -infm 
step 428, time 0.428000, maxvel 2.000000, total vol 181461, vol(u>maxvel) 0.00645642, cell count 679
bounding box: xmin inf inf inf, xmax -inf -inf -infm 
step 429, time 0.429000, maxvel 2.000000, total vol 181461, vol(u>maxvel) 0.00645642, cell count 679
bounding box: xmin inf inf inf, xmax -inf -inf -infm 
step 430, time 0.430000, maxvel 2.000000, total vol 181461, vol(u>maxvel) 0.00646094, cell count 680
bounding box: xmin inf inf inf, xmax -inf -inf -infm 
step 431, time 0.431000, maxvel 2.000000, total vol 181461, vol(u>maxvel) 0.0064821, cell count 683
bounding box: xmin inf inf inf, xmax -inf -inf -infm 
step 432, time 0.432000, maxvel 2.000000, total vol 181461, vol(u>maxvel) 0.00650158, cell count 684
bounding box: xmin inf inf inf, xmax -inf -inf -infm 
step 433, time 0.433000, maxvel 2.000000, total vol 181461, vol(u>maxvel) 0.00651213, cell count 686
bounding box: xmin inf inf inf, xmax -inf -inf -infm 
step 434, time 0.434000, maxvel 2.000000, total vol 181461, vol(u>maxvel) 0.00653612, cell count 688
bounding box: xmin inf inf inf, xmax -inf -inf -infm 
step 435, time 0.435000, maxvel 2.000000, total vol 181461, vol(u>maxvel) 0.00656062, cell count 690
bounding box: xmin inf inf inf, xmax -inf -inf -infm 
step 436, time 0.436000, maxvel 2.000000, total vol 181461, vol(u>maxvel) 0.00656062, cell count 690
bounding box: xmin inf inf inf, xmax -inf -inf -infm 
step 437, time 0.437000, maxvel 2.000000, total vol 181461, vol(u>maxvel) 0.00657515, cell count 691
bounding box: xmin inf inf inf, xmax -inf -inf -infm 
step 438, time 0.438000, maxvel 2.000000, total vol 181461, vol(u>maxvel) 0.00657515, cell count 691
bounding box: xmin inf inf inf, xmax -inf -inf -infm 
step 439, time 0.439000, maxvel 2.000000, total vol 181461, vol(u>maxvel) 0.00661398, cell count 694
bounding box: xmin inf inf inf, xmax -inf -inf -infm 
step 440, time 0.440000, maxvel 2.000000, total vol 181461, vol(u>maxvel) 0.00662265, cell count 695
bounding box: xmin inf inf inf, xmax -inf -inf -infm 
step 441, time 0.441000, maxvel 2.000000, total vol 181461, vol(u>maxvel) 0.00662265, cell count 695
bounding box: xmin inf inf inf, xmax -inf -inf -infm 
step 442, time 0.442000, maxvel 2.000000, total vol 181461, vol(u>maxvel) 0.00664268, cell count 697
bounding box: xmin inf inf inf, xmax -inf -inf -infm 
step 443, time 0.443000, maxvel 2.000000, total vol 181461, vol(u>maxvel) 0.00664268, cell count 697
bounding box: xmin inf inf inf, xmax -inf -inf -infm 
step 444, time 0.444000, maxvel 2.000000, total vol 181461, vol(u>maxvel) 0.00670071, cell count 701
bounding box: xmin inf inf inf, xmax -inf -inf -infm 
step 445, time 0.445000, maxvel 2.000000, total vol 181461, vol(u>maxvel) 0.00672198, cell count 703
bounding box: xmin inf inf inf, xmax -inf -inf -infm 
step 446, time 0.446000, maxvel 2.000000, total vol 181461, vol(u>maxvel) 0.00674618, cell count 704
bounding box: xmin inf inf inf, xmax -inf -inf -infm 
step 447, time 0.447000, maxvel 2.000000, total vol 181461, vol(u>maxvel) 0.00677121, cell count 706
bounding box: xmin inf inf inf, xmax -inf -inf -infm 
step 448, time 0.448000, maxvel 2.000000, total vol 181461, vol(u>maxvel) 0.00677726, cell count 707
bounding box: xmin inf inf inf, xmax -inf -inf -infm 
step 449, time 0.449000, maxvel 2.000000, total vol 181461, vol(u>maxvel) 0.00680567, cell count 709
bounding box: xmin inf inf inf, xmax -inf -inf -infm 
step 450, time 0.450000, maxvel 2.000000, total vol 181461, vol(u>maxvel) 0.00681393, cell count 710
bounding box: xmin inf inf inf, xmax -inf -inf -infm 
step 451, time 0.451000, maxvel 2.000000, total vol 181461, vol(u>maxvel) 0.00683851, cell count 713
bounding box: xmin inf inf inf, xmax -inf -inf -infm 
step 452, time 0.452000, maxvel 2.000000, total vol 181461, vol(u>maxvel) 0.00683851, cell count 713
bounding box: xmin inf inf inf, xmax -inf -inf -infm 
step 453, time 0.453000, maxvel 2.000000, total vol 181461, vol(u>maxvel) 0.00685542, cell count 716
bounding box: xmin inf inf inf, xmax -inf -inf -infm 
step 454, time 0.454000, maxvel 2.000000, total vol 181461, vol(u>maxvel) 0.00685994, cell count 717
bounding box: xmin inf inf inf, xmax -inf -inf -infm 
step 455, time 0.455000, maxvel 2.000000, total vol 181461, vol(u>maxvel) 0.00686442, cell count 718
bounding box: xmin inf inf inf, xmax -inf -inf -infm 
step 456, time 0.456000, maxvel 2.000000, total vol 181461, vol(u>maxvel) 0.00687051, cell count 719
bounding box: xmin inf inf inf, xmax -inf -inf -infm 
step 457, time 0.457000, maxvel 2.000000, total vol 181461, vol(u>maxvel) 0.00687051, cell count 719
bounding box: xmin inf inf inf, xmax -inf -inf -infm 
step 458, time 0.458000, maxvel 2.000000, total vol 181461, vol(u>maxvel) 0.00689179, cell count 721
bounding box: xmin inf inf inf, xmax -inf -inf -infm 
step 459, time 0.459000, maxvel 2.000000, total vol 181461, vol(u>maxvel) 0.00689732, cell count 722
bounding box: xmin inf inf inf, xmax -inf -inf -infm 
step 460, time 0.460000, maxvel 2.000000, total vol 181461, vol(u>maxvel) 0.00690238, cell count 723
bounding box: xmin inf inf inf, xmax -inf -inf -infm 
step 461, time 0.461000, maxvel 2.000000, total vol 181461, vol(u>maxvel) 0.00692858, cell count 724
bounding box: xmin inf inf inf, xmax -inf -inf -infm 
step 462, time 0.462000, maxvel 2.000000, total vol 181461, vol(u>maxvel) 0.00693305, cell count 725
bounding box: xmin inf inf inf, xmax -inf -inf -infm 
step 463, time 0.463000, maxvel 2.000000, total vol 181461, vol(u>maxvel) 0.00693305, cell count 725
bounding box: xmin inf inf inf, xmax -inf -inf -infm 
step 464, time 0.464000, maxvel 2.000000, total vol 181461, vol(u>maxvel) 0.00693305, cell count 725
bounding box: xmin inf inf inf, xmax -inf -inf -infm 
step 465, time 0.465000, maxvel 2.000000, total vol 181461, vol(u>maxvel) 0.00693305, cell count 725
bounding box: xmin inf inf inf, xmax -inf -inf -infm 
step 466, time 0.466000, maxvel 2.000000, total vol 181461, vol(u>maxvel) 0.00694974, cell count 726
bounding box: xmin inf inf inf, xmax -inf -inf -infm 
step 467, time 0.467000, maxvel 2.000000, total vol 181461, vol(u>maxvel) 0.00695582, cell count 727
bounding box: xmin inf inf inf, xmax -inf -inf -infm 
step 468, time 0.468000, maxvel 2.000000, total vol 181461, vol(u>maxvel) 0.00695582, cell count 727
bounding box: xmin inf inf inf, xmax -inf -inf -infm 
step 469, time 0.469000, maxvel 2.000000, total vol 181461, vol(u>maxvel) 0.00695582, cell count 727
bounding box: xmin inf inf inf, xmax -inf -inf -infm 
step 470, time 0.470000, maxvel 2.000000, total vol 181461, vol(u>maxvel) 0.00696952, cell count 728
bounding box: xmin inf inf inf, xmax -inf -inf -infm 
step 471, time 0.471000, maxvel 2.000000, total vol 181461, vol(u>maxvel) 0.00698742, cell count 730
bounding box: xmin inf inf inf, xmax -inf -inf -infm 
step 472, time 0.472000, maxvel 2.000000, total vol 181461, vol(u>maxvel) 0.00698742, cell count 730
bounding box: xmin inf inf inf, xmax -inf -inf -infm 
step 473, time 0.473000, maxvel 2.000000, total vol 181461, vol(u>maxvel) 0.00698742, cell count 730
bounding box: xmin inf inf inf, xmax -inf -inf -infm 
step 474, time 0.474000, maxvel 2.000000, total vol 181461, vol(u>maxvel) 0.00699347, cell count 731
bounding box: xmin inf inf inf, xmax -inf -inf -infm 
step 475, time 0.475000, maxvel 2.000000, total vol 181461, vol(u>maxvel) 0.00699347, cell count 731
bounding box: xmin inf inf inf, xmax -inf -inf -infm 
step 476, time 0.476000, maxvel 2.000000, total vol 181461, vol(u>maxvel) 0.00699347, cell count 731
bounding box: xmin inf inf inf, xmax -inf -inf -infm 
step 477, time 0.477000, maxvel 2.000000, total vol 181461, vol(u>maxvel) 0.00700175, cell count 732
bounding box: xmin inf inf inf, xmax -inf -inf -infm 
step 478, time 0.478000, maxvel 2.000000, total vol 181461, vol(u>maxvel) 0.00700175, cell count 732
bounding box: xmin inf inf inf, xmax -inf -inf -infm 
step 479, time 0.479000, maxvel 2.000000, total vol 181461, vol(u>maxvel) 0.00701504, cell count 734
bounding box: xmin inf inf inf, xmax -inf -inf -infm 
step 480, time 0.480000, maxvel 2.000000, total vol 181461, vol(u>maxvel) 0.00702415, cell count 735
bounding box: xmin inf inf inf, xmax -inf -inf -infm 
step 481, time 0.481000, maxvel 2.000000, total vol 181461, vol(u>maxvel) 0.00705614, cell count 737
bounding box: xmin inf inf inf, xmax -inf -inf -infm 
step 482, time 0.482000, maxvel 2.000000, total vol 181461, vol(u>maxvel) 0.00705614, cell count 737
bounding box: xmin inf inf inf, xmax -inf -inf -infm 
step 483, time 0.483000, maxvel 2.000000, total vol 181461, vol(u>maxvel) 0.00705614, cell count 737
bounding box: xmin inf inf inf, xmax -inf -inf -infm 
step 484, time 0.484000, maxvel 2.000000, total vol 181461, vol(u>maxvel) 0.00706488, cell count 738
bounding box: xmin inf inf inf, xmax -inf -inf -infm 
step 485, time 0.485000, maxvel 2.000000, total vol 181461, vol(u>maxvel) 0.00708148, cell count 740
bounding box: xmin inf inf inf, xmax -inf -inf -infm 
step 486, time 0.486000, maxvel 2.000000, total vol 181461, vol(u>maxvel) 0.00708596, cell count 741
bounding box: xmin inf inf inf, xmax -inf -inf -infm 
step 487, time 0.487000, maxvel 2.000000, total vol 181461, vol(u>maxvel) 0.00708596, cell count 741
bounding box: xmin inf inf inf, xmax -inf -inf -infm 
step 488, time 0.488000, maxvel 2.000000, total vol 181461, vol(u>maxvel) 0.00708596, cell count 741
bounding box: xmin inf inf inf, xmax -inf -inf -infm 
step 489, time 0.489000, maxvel 2.000000, total vol 181461, vol(u>maxvel) 0.00709044, cell count 742
bounding box: xmin inf inf inf, xmax -inf -inf -infm 
step 490, time 0.490000, maxvel 2.000000, total vol 181461, vol(u>maxvel) 0.00709044, cell count 742
bounding box: xmin inf inf inf, xmax -inf -inf -infm 
step 491, time 0.491000, maxvel 2.000000, total vol 181461, vol(u>maxvel) 0.00710616, cell count 743
bounding box: xmin inf inf inf, xmax -inf -inf -infm 
step 492, time 0.492000, maxvel 2.000000, total vol 181461, vol(u>maxvel) 0.0071209, cell count 744
bounding box: xmin inf inf inf, xmax -inf -inf -infm 
step 493, time 0.493000, maxvel 2.000000, total vol 181461, vol(u>maxvel) 0.0071365, cell count 746
bounding box: xmin inf inf inf, xmax -inf -inf -infm 
step 494, time 0.494000, maxvel 2.000000, total vol 181461, vol(u>maxvel) 0.0071365, cell count 746
bounding box: xmin inf inf inf, xmax -inf -inf -infm 
step 495, time 0.495000, maxvel 2.000000, total vol 181461, vol(u>maxvel) 0.0071469, cell count 747
bounding box: xmin inf inf inf, xmax -inf -inf -infm 
step 496, time 0.496000, maxvel 2.000000, total vol 181461, vol(u>maxvel) 0.0071469, cell count 747
bounding box: xmin inf inf inf, xmax -inf -inf -infm 
step 497, time 0.497000, maxvel 2.000000, total vol 181461, vol(u>maxvel) 0.00716572, cell count 749
bounding box: xmin inf inf inf, xmax -inf -inf -infm 
step 498, time 0.498000, maxvel 2.000000, total vol 181461, vol(u>maxvel) 0.00716572, cell count 749
bounding box: xmin inf inf inf, xmax -inf -inf -infm 
step 499, time 0.499000, maxvel 2.000000, total vol 181461, vol(u>maxvel) 0.00717613, cell count 750
bounding box: xmin inf inf inf, xmax -inf -inf -infm 
step 500, time 0.500000, maxvel 2.000000, total vol 181461, vol(u>maxvel) 0.00719283, cell count 751
bounding box: xmin inf inf inf, xmax -inf -inf -infm 
step 501, time 0.501000, maxvel 2.000000, total vol 181461, vol(u>maxvel) 0.00721226, cell count 753
bounding box: xmin inf inf inf, xmax -inf -inf -infm 
step 502, time 0.502000, maxvel 2.000000, total vol 181461, vol(u>maxvel) 0.00721226, cell count 753
bounding box: xmin inf inf inf, xmax -inf -inf -infm 
step 503, time 0.503000, maxvel 2.000000, total vol 181461, vol(u>maxvel) 0.00721754, cell count 754
bounding box: xmin inf inf inf, xmax -inf -inf -infm 
step 504, time 0.504000, maxvel 2.000000, total vol 181461, vol(u>maxvel) 0.00723913, cell count 756
bounding box: xmin inf inf inf, xmax -inf -inf -infm 
step 505, time 0.505000, maxvel 2.000000, total vol 181461, vol(u>maxvel) 0.00726986, cell count 759
bounding box: xmin inf inf inf, xmax -inf -inf -infm 
step 506, time 0.506000, maxvel 2.000000, total vol 181461, vol(u>maxvel) 0.00726986, cell count 759
bounding box: xmin inf inf inf, xmax -inf -inf -infm 
step 507, time 0.507000, maxvel 2.000000, total vol 181461, vol(u>maxvel) 0.00728026, cell count 760
bounding box: xmin inf inf inf, xmax -inf -inf -infm 
step 508, time 0.508000, maxvel 2.000000, total vol 181461, vol(u>maxvel) 0.00729626, cell count 761
bounding box: xmin inf inf inf, xmax -inf -inf -infm 
step 509, time 0.509000, maxvel 2.000000, total vol 181461, vol(u>maxvel) 0.0073221, cell count 764
bounding box: xmin inf inf inf, xmax -inf -inf -infm 
step 510, time 0.510000, maxvel 2.000000, total vol 181461, vol(u>maxvel) 0.00734077, cell count 766
bounding box: xmin inf inf inf, xmax -inf -inf -infm 
step 511, time 0.511000, maxvel 2.000000, total vol 181461, vol(u>maxvel) 0.00734077, cell count 766
bounding box: xmin inf inf inf, xmax -inf -inf -infm 
step 512, time 0.512000, maxvel 2.000000, total vol 181461, vol(u>maxvel) 0.00734077, cell count 766
bounding box: xmin inf inf inf, xmax -inf -inf -infm 
step 513, time 0.513000, maxvel 2.000000, total vol 181461, vol(u>maxvel) 0.00736364, cell count 768
bounding box: xmin inf inf inf, xmax -inf -inf -infm 
step 514, time 0.514000, maxvel 2.000000, total vol 181461, vol(u>maxvel) 0.00736364, cell count 768
bounding box: xmin inf inf inf, xmax -inf -inf -infm 
step 515, time 0.515000, maxvel 2.000000, total vol 181461, vol(u>maxvel) 0.00736364, cell count 768
bounding box: xmin inf inf inf, xmax -inf -inf -infm 
step 516, time 0.516000, maxvel 2.000000, total vol 181461, vol(u>maxvel) 0.00736364, cell count 768
bounding box: xmin inf inf inf, xmax -inf -inf -infm 
step 517, time 0.517000, maxvel 2.000000, total vol 181461, vol(u>maxvel) 0.00736364, cell count 768
bounding box: xmin inf inf inf, xmax -inf -inf -infm 
step 518, time 0.518000, maxvel 2.000000, total vol 181461, vol(u>maxvel) 0.00736969, cell count 769
bounding box: xmin inf inf inf, xmax -inf -inf -infm 
step 519, time 0.519000, maxvel 2.000000, total vol 181461, vol(u>maxvel) 0.00737864, cell count 771
bounding box: xmin inf inf inf, xmax -inf -inf -infm 
step 520, time 0.520000, maxvel 2.000000, total vol 181461, vol(u>maxvel) 0.00737864, cell count 771
bounding box: xmin inf inf inf, xmax -inf -inf -infm 
step 521, time 0.521000, maxvel 2.000000, total vol 181461, vol(u>maxvel) 0.00737864, cell count 771
bounding box: xmin inf inf inf, xmax -inf -inf -infm 
step 522, time 0.522000, maxvel 2.000000, total vol 181461, vol(u>maxvel) 0.00739238, cell count 772
bounding box: xmin inf inf inf, xmax -inf -inf -infm 
step 523, time 0.523000, maxvel 2.000000, total vol 181461, vol(u>maxvel) 0.00739238, cell count 772
bounding box: xmin inf inf inf, xmax -inf -inf -infm 
step 524, time 0.524000, maxvel 2.000000, total vol 181461, vol(u>maxvel) 0.00739238, cell count 772
bounding box: xmin inf inf inf, xmax -inf -inf -infm 
step 525, time 0.525000, maxvel 2.000000, total vol 181461, vol(u>maxvel) 0.00739238, cell count 772
bounding box: xmin inf inf inf, xmax -inf -inf -infm 
step 526, time 0.526000, maxvel 2.000000, total vol 181461, vol(u>maxvel) 0.00740065, cell count 773
bounding box: xmin inf inf inf, xmax -inf -inf -infm 
[...]
bounding box: xmin inf inf inf, xmax -inf -inf -infm 
step 12294, time 12.294000, maxvel 2.000000, total vol 181461, vol(u>maxvel) 0.00118334, cell count 108
bounding box: xmin inf inf inf, xmax -inf -inf -infm 
step 12295, time 12.295000, maxvel 2.000000, total vol 181461, vol(u>maxvel) 0.00118334, cell count 108
bounding box: xmin inf inf inf, xmax -inf -inf -infm 
step 12296, time 12.296000, maxvel 2.000000, total vol 181461, vol(u>maxvel) 0.00118334, cell count 108
bounding box: xmin inf inf inf, xmax -inf -inf -infm 
step 12297, time 12.297000, maxvel 2.000000, total vol 181461, vol(u>maxvel) 0.00118334, cell count 108
bounding box: xmin inf inf inf, xmax -inf -inf -infm 
step 12298, time 12.298000, maxvel 2.000000, total vol 181461, vol(u>maxvel) 0.00118334, cell count 108
bounding box: xmin inf inf inf, xmax -inf -inf -infm 
step 12299, time 12.299000, maxvel 2.000000, total vol 181461, vol(u>maxvel) 0.00118334, cell count 108
bounding box: xmin inf inf inf, xmax -inf -inf -infm 
step 12300, time 12.300000, maxvel 2.000000, total vol 181461, vol(u>maxvel) 0.00118334, cell count 108
bounding box: xmin inf inf inf, xmax -inf -inf -infm 
step 12301, time 12.301000, maxvel 2.000000, total vol 181461, vol(u>maxvel) 0.00118334, cell count 108
bounding box: xmin inf inf inf, xmax -inf -inf -infm 
step 12302, time 12.302000, maxvel 2.000000, total vol 181461, vol(u>maxvel) 0.00118334, cell count 108
bounding box: xmin inf inf inf, xmax -inf -inf -infm 
step 12303, time 12.303000, maxvel 2.000000, total vol 181461, vol(u>maxvel) 0.00118334, cell count 108
bounding box: xmin inf inf inf, xmax -inf -inf -infm 
step 12304, time 12.304000, maxvel 2.000000, total vol 181461, vol(u>maxvel) 0.00117722, cell count 107
bounding box: xmin inf inf inf, xmax -inf -inf -infm 
step 12305, time 12.305000, maxvel 2.000000, total vol 181461, vol(u>maxvel) 0.00117722, cell count 107
bounding box: xmin inf inf inf, xmax -inf -inf -infm 
step 12306, time 12.306000, maxvel 2.000000, total vol 181461, vol(u>maxvel) 0.00117722, cell count 107
bounding box: xmin inf inf inf, xmax -inf -inf -infm 
step 12307, time 12.307000, maxvel 2.000000, total vol 181461, vol(u>maxvel) 0.00117722, cell count 107
bounding box: xmin inf inf inf, xmax -inf -inf -infm 
step 12308, time 12.308000, maxvel 2.000000, total vol 181461, vol(u>maxvel) 0.00117722, cell count 107
bounding box: xmin inf inf inf, xmax -inf -inf -infm 
step 12309, time 12.309000, maxvel 2.000000, total vol 181461, vol(u>maxvel) 0.00117722, cell count 107
bounding box: xmin inf inf inf, xmax -inf -inf -infm 
step 12310, time 12.310000, maxvel 2.000000, total vol 181461, vol(u>maxvel) 0.00117722, cell count 107
bounding box: xmin inf inf inf, xmax -inf -inf -infm 
step 12311, time 12.311000, maxvel 2.000000, total vol 181461, vol(u>maxvel) 0.00117722, cell count 107
bounding box: xmin inf inf inf, xmax -inf -inf -infm 
step 12312, time 12.312000, maxvel 2.000000, total vol 181461, vol(u>maxvel) 0.00117722, cell count 107
bounding box: xmin inf inf inf, xmax -inf -inf -infm 
step 12313, time 12.313000, maxvel 2.000000, total vol 181461, vol(u>maxvel) 0.00117722, cell count 107
bounding box: xmin inf inf inf, xmax -inf -inf -infm 
step 12314, time 12.314000, maxvel 2.000000, total vol 181461, vol(u>maxvel) 0.00117722, cell count 107
bounding box: xmin inf inf inf, xmax -inf -inf -infm 
step 12315, time 12.315000, maxvel 2.000000, total vol 181461, vol(u>maxvel) 0.00117722, cell count 107
bounding box: xmin inf inf inf, xmax -inf -inf -infm 
step 12316, time 12.316000, maxvel 2.000000, total vol 181461, vol(u>maxvel) 0.00117722, cell count 107
bounding box: xmin inf inf inf, xmax -inf -inf -infm 
step 12317, time 12.317000, maxvel 2.000000, total vol 181461, vol(u>maxvel) 0.00117722, cell count 107
bounding box: xmin inf inf inf, xmax -inf -inf -infm 
step 12318, time 12.318000, maxvel 2.000000, total vol 181461, vol(u>maxvel) 0.00117722, cell count 107
bounding box: xmin inf inf inf, xmax -inf -inf -infm 
step 12319, time 12.319000, maxvel 2.000000, total vol 181461, vol(u>maxvel) 0.00117722, cell count 107
bounding box: xmin inf inf inf, xmax -inf -inf -infm 
step 12320, time 12.320000, maxvel 2.000000, total vol 181461, vol(u>maxvel) 0.00117722, cell count 107
bounding box: xmin inf inf inf, xmax -inf -inf -infm 
step 12321, time 12.321000, maxvel 2.000000, total vol 181461, vol(u>maxvel) 0.00117722, cell count 107
bounding box: xmin inf inf inf, xmax -inf -inf -infm 
step 12322, time 12.322000, maxvel 2.000000, total vol 181461, vol(u>maxvel) 0.00117722, cell count 107
bounding box: xmin inf inf inf, xmax -inf -inf -infm 
step 12323, time 12.323000, maxvel 2.000000, total vol 181461, vol(u>maxvel) 0.00117722, cell count 107
bounding box: xmin inf inf inf, xmax -inf -inf -infm 
step 12324, time 12.324000, maxvel 2.000000, total vol 181461, vol(u>maxvel) 0.00117722, cell count 107
bounding box: xmin inf inf inf, xmax -inf -inf -infm 
step 12325, time 12.325000, maxvel 2.000000, total vol 181461, vol(u>maxvel) 0.00117722, cell count 107
bounding box: xmin inf inf inf, xmax -inf -inf -infm 
step 12326, time 12.326000, maxvel 2.000000, total vol 181461, vol(u>maxvel) 0.00117722, cell count 107
bounding box: xmin inf inf inf, xmax -inf -inf -infm 
step 12327, time 12.327000, maxvel 2.000000, total vol 181461, vol(u>maxvel) 0.00117722, cell count 107
bounding box: xmin inf inf inf, xmax -inf -inf -infm 
step 12328, time 12.328000, maxvel 2.000000, total vol 181461, vol(u>maxvel) 0.00117722, cell count 107
bounding box: xmin inf inf inf, xmax -inf -inf -infm 
step 12329, time 12.329000, maxvel 2.000000, total vol 181461, vol(u>maxvel) 0.00117722, cell count 107
bounding box: xmin inf inf inf, xmax -inf -inf -infm 
step 12330, time 12.330000, maxvel 2.000000, total vol 181461, vol(u>maxvel) 0.00117722, cell count 107
bounding box: xmin inf inf inf, xmax -inf -inf -infm 
step 12331, time 12.331000, maxvel 2.000000, total vol 181461, vol(u>maxvel) 0.00117722, cell count 107
bounding box: xmin inf inf inf, xmax -inf -inf -infm 
step 12332, time 12.332000, maxvel 2.000000, total vol 181461, vol(u>maxvel) 0.00117722, cell count 107
bounding box: xmin inf inf inf, xmax -inf -inf -infm 
step 12333, time 12.333000, maxvel 2.000000, total vol 181461, vol(u>maxvel) 0.00117722, cell count 107
bounding box: xmin inf inf inf, xmax -inf -inf -infm 
step 12334, time 12.334000, maxvel 2.000000, total vol 181461, vol(u>maxvel) 0.00117722, cell count 107
bounding box: xmin inf inf inf, xmax -inf -inf -infm 
step 12335, time 12.335000, maxvel 2.000000, total vol 181461, vol(u>maxvel) 0.00117722, cell count 107
bounding box: xmin inf inf inf, xmax -inf -inf -infm 
step 12336, time 12.336000, maxvel 2.000000, total vol 181461, vol(u>maxvel) 0.00117722, cell count 107
bounding box: xmin inf inf inf, xmax -inf -inf -infm 
step 12337, time 12.337000, maxvel 2.000000, total vol 181461, vol(u>maxvel) 0.00117722, cell count 107
bounding box: xmin inf inf inf, xmax -inf -inf -infm 
step 12338, time 12.338000, maxvel 2.000000, total vol 181461, vol(u>maxvel) 0.00117722, cell count 107
bounding box: xmin inf inf inf, xmax -inf -inf -infm 
step 12339, time 12.339000, maxvel 2.000000, total vol 181461, vol(u>maxvel) 0.00117722, cell count 107
bounding box: xmin inf inf inf, xmax -inf -inf -infm 
step 12340, time 12.340000, maxvel 2.000000, total vol 181461, vol(u>maxvel) 0.00117722, cell count 107
bounding box: xmin inf inf inf, xmax -inf -inf -infm 
step 12341, time 12.341000, maxvel 2.000000, total vol 181461, vol(u>maxvel) 0.00117722, cell count 107
bounding box: xmin inf inf inf, xmax -inf -inf -infm 
step 12342, time 12.342000, maxvel 2.000000, total vol 181461, vol(u>maxvel) 0.00117722, cell count 107
bounding box: xmin inf inf inf, xmax -inf -inf -infm 
step 12343, time 12.343000, maxvel 2.000000, total vol 181461, vol(u>maxvel) 0.00117722, cell count 107
bounding box: xmin inf inf inf, xmax -inf -inf -infm 
step 12344, time 12.344000, maxvel 2.000000, total vol 181461, vol(u>maxvel) 0.00117722, cell count 107
bounding box: xmin inf inf inf, xmax -inf -inf -infm 
step 12345, time 12.345000, maxvel 2.000000, total vol 181461, vol(u>maxvel) 0.00117722, cell count 107
bounding box: xmin inf inf inf, xmax -inf -inf -infm 
step 12346, time 12.346000, maxvel 2.000000, total vol 181461, vol(u>maxvel) 0.00117722, cell count 107
bounding box: xmin inf inf inf, xmax -inf -inf -infm 
step 12347, time 12.347000, maxvel 2.000000, total vol 181461, vol(u>maxvel) 0.00117722, cell count 107
bounding box: xmin inf inf inf, xmax -inf -inf -infm 
step 12348, time 12.348000, maxvel 2.000000, total vol 181461, vol(u>maxvel) 0.00117722, cell count 107
bounding box: xmin inf inf inf, xmax -inf -inf -infm 
step 12349, time 12.349000, maxvel 2.000000, total vol 181461, vol(u>maxvel) 0.00117722, cell count 107
bounding box: xmin inf inf inf, xmax -inf -inf -infm 
step 12350, time 12.350000, maxvel 2.000000, total vol 181461, vol(u>maxvel) 0.00117722, cell count 107
bounding box: xmin inf inf inf, xmax -inf -inf -infm 
step 12351, time 12.351000, maxvel 2.000000, total vol 181461, vol(u>maxvel) 0.00117722, cell count 107
bounding box: xmin inf inf inf, xmax -inf -inf -infm 
step 12352, time 12.352000, maxvel 2.000000, total vol 181461, vol(u>maxvel) 0.00117722, cell count 107
bounding box: xmin inf inf inf, xmax -inf -inf -infm 
step 12353, time 12.353000, maxvel 2.000000, total vol 181461, vol(u>maxvel) 0.00117722, cell count 107
bounding box: xmin inf inf inf, xmax -inf -inf -infm 
step 12354, time 12.354000, maxvel 2.000000, total vol 181461, vol(u>maxvel) 0.00117722, cell count 107
bounding box: xmin inf inf inf, xmax -inf -inf -infm 
step 12355, time 12.355000, maxvel 2.000000, total vol 181461, vol(u>maxvel) 0.00117722, cell count 107
bounding box: xmin inf inf inf, xmax -inf -inf -infm 
step 12356, time 12.356000, maxvel 2.000000, total vol 181461, vol(u>maxvel) 0.00117722, cell count 107
bounding box: xmin inf inf inf, xmax -inf -inf -infm 
step 12357, time 12.357000, maxvel 2.000000, total vol 181461, vol(u>maxvel) 0.00117722, cell count 107
bounding box: xmin inf inf inf, xmax -inf -inf -infm 
step 12358, time 12.358000, maxvel 2.000000, total vol 181461, vol(u>maxvel) 0.00117722, cell count 107
bounding box: xmin inf inf inf, xmax -inf -inf -infm 
step 12359, time 12.359000, maxvel 2.000000, total vol 181461, vol(u>maxvel) 0.00117722, cell count 107
bounding box: xmin inf inf inf, xmax -inf -inf -infm 
step 12360, time 12.360000, maxvel 2.000000, total vol 181461, vol(u>maxvel) 0.00117722, cell count 107
bounding box: xmin inf inf inf, xmax -inf -inf -infm 
step 12361, time 12.361000, maxvel 2.000000, total vol 181461, vol(u>maxvel) 0.00117722, cell count 107
bounding box: xmin inf inf inf, xmax -inf -inf -infm 
step 12362, time 12.362000, maxvel 2.000000, total vol 181461, vol(u>maxvel) 0.00117722, cell count 107
bounding box: xmin inf inf inf, xmax -inf -inf -infm 
step 12363, time 12.363000, maxvel 2.000000, total vol 181461, vol(u>maxvel) 0.00117722, cell count 107
bounding box: xmin inf inf inf, xmax -inf -inf -infm 
step 12364, time 12.364000, maxvel 2.000000, total vol 181461, vol(u>maxvel) 0.00117722, cell count 107
bounding box: xmin inf inf inf, xmax -inf -inf -infm 
step 12365, time 12.365000, maxvel 2.000000, total vol 181461, vol(u>maxvel) 0.00117722, cell count 107
bounding box: xmin inf inf inf, xmax -inf -inf -infm 
step 12366, time 12.366000, maxvel 2.000000, total vol 181461, vol(u>maxvel) 0.00117722, cell count 107
bounding box: xmin inf inf inf, xmax -inf -inf -infm 
step 12367, time 12.367000, maxvel 2.000000, total vol 181461, vol(u>maxvel) 0.00117722, cell count 107
bounding box: xmin inf inf inf, xmax -inf -inf -infm 
step 12368, time 12.368000, maxvel 2.000000, total vol 181461, vol(u>maxvel) 0.00117722, cell count 107
bounding box: xmin inf inf inf, xmax -inf -inf -infm 
step 12369, time 12.369000, maxvel 2.000000, total vol 181461, vol(u>maxvel) 0.00117722, cell count 107
bounding box: xmin inf inf inf, xmax -inf -inf -infm 
step 12370, time 12.370000, maxvel 2.000000, total vol 181461, vol(u>maxvel) 0.00117722, cell count 107
bounding box: xmin inf inf inf, xmax -inf -inf -infm 
step 12371, time 12.371000, maxvel 2.000000, total vol 181461, vol(u>maxvel) 0.00117722, cell count 107
bounding box: xmin inf inf inf, xmax -inf -inf -infm 
step 12372, time 12.372000, maxvel 2.000000, total vol 181461, vol(u>maxvel) 0.00117722, cell count 107
bounding box: xmin inf inf inf, xmax -inf -inf -infm 
step 12373, time 12.373000, maxvel 2.000000, total vol 181461, vol(u>maxvel) 0.00117722, cell count 107
bounding box: xmin inf inf inf, xmax -inf -inf -infm 
step 12374, time 12.374000, maxvel 2.000000, total vol 181461, vol(u>maxvel) 0.00117722, cell count 107
bounding box: xmin inf inf inf, xmax -inf -inf -infm 
step 12375, time 12.375000, maxvel 2.000000, total vol 181461, vol(u>maxvel) 0.00117722, cell count 107
bounding box: xmin inf inf inf, xmax -inf -inf -infm 
step 12376, time 12.376000, maxvel 2.000000, total vol 181461, vol(u>maxvel) 0.00117722, cell count 107
bounding box: xmin inf inf inf, xmax -inf -inf -infm 
step 12377, time 12.377000, maxvel 2.000000, total vol 181461, vol(u>maxvel) 0.00117722, cell count 107
bounding box: xmin inf inf inf, xmax -inf -inf -infm 
step 12378, time 12.378000, maxvel 2.000000, total vol 181461, vol(u>maxvel) 0.00117722, cell count 107
bounding box: xmin inf inf inf, xmax -inf -inf -infm 
step 12379, time 12.379000, maxvel 2.000000, total vol 181461, vol(u>maxvel) 0.00117722, cell count 107
bounding box: xmin inf inf inf, xmax -inf -inf -infm 
step 12380, time 12.380000, maxvel 2.000000, total vol 181461, vol(u>maxvel) 0.00117722, cell count 107
bounding box: xmin inf inf inf, xmax -inf -inf -infm 
step 12381, time 12.381000, maxvel 2.000000, total vol 181461, vol(u>maxvel) 0.00117722, cell count 107
bounding box: xmin inf inf inf, xmax -inf -inf -infm 
step 12382, time 12.382000, maxvel 2.000000, total vol 181461, vol(u>maxvel) 0.00117722, cell count 107
bounding box: xmin inf inf inf, xmax -inf -inf -infm 
step 12383, time 12.383000, maxvel 2.000000, total vol 181461, vol(u>maxvel) 0.00117722, cell count 107
bounding box: xmin inf inf inf, xmax -inf -inf -infm 
step 12384, time 12.384000, maxvel 2.000000, total vol 181461, vol(u>maxvel) 0.00117722, cell count 107
bounding box: xmin inf inf inf, xmax -inf -inf -infm 
step 12385, time 12.385000, maxvel 2.000000, total vol 181461, vol(u>maxvel) 0.00117722, cell count 107
bounding box: xmin inf inf inf, xmax -inf -inf -infm 
step 12386, time 12.386000, maxvel 2.000000, total vol 181461, vol(u>maxvel) 0.00117722, cell count 107
bounding box: xmin inf inf inf, xmax -inf -inf -infm 
step 12387, time 12.387000, maxvel 2.000000, total vol 181461, vol(u>maxvel) 0.00117722, cell count 107
bounding box: xmin inf inf inf, xmax -inf -inf -infm 
step 12388, time 12.388000, maxvel 2.000000, total vol 181461, vol(u>maxvel) 0.00117722, cell count 107
bounding box: xmin inf inf inf, xmax -inf -inf -infm 
step 12389, time 12.389000, maxvel 2.000000, total vol 181461, vol(u>maxvel) 0.00117722, cell count 107
bounding box: xmin inf inf inf, xmax -inf -inf -infm 
step 12390, time 12.390000, maxvel 2.000000, total vol 181461, vol(u>maxvel) 0.00117722, cell count 107
bounding box: xmin inf inf inf, xmax -inf -inf -infm 
step 12391, time 12.391000, maxvel 2.000000, total vol 181461, vol(u>maxvel) 0.00117722, cell count 107
bounding box: xmin inf inf inf, xmax -inf -inf -infm 
step 12392, time 12.392000, maxvel 2.000000, total vol 181461, vol(u>maxvel) 0.00117722, cell count 107
bounding box: xmin inf inf inf, xmax -inf -inf -infm 
step 12393, time 12.393000, maxvel 2.000000, total vol 181461, vol(u>maxvel) 0.00117722, cell count 107
bounding box: xmin inf inf inf, xmax -inf -inf -infm 
step 12394, time 12.394000, maxvel 2.000000, total vol 181461, vol(u>maxvel) 0.00117722, cell count 107
bounding box: xmin inf inf inf, xmax -inf -inf -infm 
step 12395, time 12.395000, maxvel 2.000000, total vol 181461, vol(u>maxvel) 0.00117722, cell count 107
bounding box: xmin inf inf inf, xmax -inf -inf -infm 
step 12396, time 12.396000, maxvel 2.000000, total vol 181461, vol(u>maxvel) 0.00117722, cell count 107
bounding box: xmin inf inf inf, xmax -inf -inf -infm 
step 12397, time 12.397000, maxvel 2.000000, total vol 181461, vol(u>maxvel) 0.00117722, cell count 107
bounding box: xmin inf inf inf, xmax -inf -inf -infm 
step 12398, time 12.398000, maxvel 2.000000, total vol 181461, vol(u>maxvel) 0.00117722, cell count 107
bounding box: xmin inf inf inf, xmax -inf -inf -infm 
step 12399, time 12.399000, maxvel 2.000000, total vol 181461, vol(u>maxvel) 0.00117722, cell count 107
bounding box: xmin inf inf inf, xmax -inf -inf -infm 
step 12400, time 12.400000, maxvel 2.000000, total vol 181461, vol(u>maxvel) 0.00117722, cell count 107
bounding box: xmin inf inf inf, xmax -inf -inf -infm 
step 12401, time 12.401000, maxvel 2.000000, total vol 181461, vol(u>maxvel) 0.00117722, cell count 107
bounding box: xmin inf inf inf, xmax -inf -inf -infm 
step 12402, time 12.402000, maxvel 2.000000, total vol 181461, vol(u>maxvel) 0.00117722, cell count 107
bounding box: xmin inf inf inf, xmax -inf -inf -infm 
step 12403, time 12.403000, maxvel 2.000000, total vol 181461, vol(u>maxvel) 0.00117722, cell count 107
bounding box: xmin inf inf inf, xmax -inf -inf -infm 
step 12404, time 12.404000, maxvel 2.000000, total vol 181461, vol(u>maxvel) 0.00117722, cell count 107
bounding box: xmin inf inf inf, xmax -inf -inf -infm 
step 12405, time 12.405000, maxvel 2.000000, total vol 181461, vol(u>maxvel) 0.00117722, cell count 107
bounding box: xmin inf inf inf, xmax -inf -inf -infm 
step 12406, time 12.406000, maxvel 2.000000, total vol 181461, vol(u>maxvel) 0.00117722, cell count 107
bounding box: xmin inf inf inf, xmax -inf -inf -infm 
step 12407, time 12.407000, maxvel 2.000000, total vol 181461, vol(u>maxvel) 0.00117722, cell count 107
bounding box: xmin inf inf inf, xmax -inf -inf -infm 
step 12408, time 12.408000, maxvel 2.000000, total vol 181461, vol(u>maxvel) 0.00117722, cell count 107
bounding box: xmin inf inf inf, xmax -inf -inf -infm 
step 12409, time 12.409000, maxvel 2.000000, total vol 181461, vol(u>maxvel) 0.00117722, cell count 107
bounding box: xmin inf inf inf, xmax -inf -inf -infm 
step 12410, time 12.410000, maxvel 2.000000, total vol 181461, vol(u>maxvel) 0.00117722, cell count 107
bounding box: xmin inf inf inf, xmax -inf -inf -infm 
step 12411, time 12.411000, maxvel 2.000000, total vol 181461, vol(u>maxvel) 0.00117722, cell count 107
bounding box: xmin inf inf inf, xmax -inf -inf -infm 
step 12412, time 12.412000, maxvel 2.000000, total vol 181461, vol(u>maxvel) 0.00117722, cell count 107
bounding box: xmin inf inf inf, xmax -inf -inf -infm 
step 12413, time 12.413000, maxvel 2.000000, total vol 181461, vol(u>maxvel) 0.00117722, cell count 107
bounding box: xmin inf inf inf, xmax -inf -inf -infm 
step 12414, time 12.414000, maxvel 2.000000, total vol 181461, vol(u>maxvel) 0.00117722, cell count 107
bounding box: xmin inf inf inf, xmax -inf -inf -infm 
step 12415, time 12.415000, maxvel 2.000000, total vol 181461, vol(u>maxvel) 0.00117722, cell count 107
bounding box: xmin inf inf inf, xmax -inf -inf -infm 
step 12416, time 12.416000, maxvel 2.000000, total vol 181461, vol(u>maxvel) 0.00117722, cell count 107
bounding box: xmin inf inf inf, xmax -inf -inf -infm 
step 12417, time 12.417000, maxvel 2.000000, total vol 181461, vol(u>maxvel) 0.00117722, cell count 107
bounding box: xmin inf inf inf, xmax -inf -inf -infm 
step 12418, time 12.418000, maxvel 2.000000, total vol 181461, vol(u>maxvel) 0.00117722, cell count 107
bounding box: xmin inf inf inf, xmax -inf -inf -infm 
step 12419, time 12.419000, maxvel 2.000000, total vol 181461, vol(u>maxvel) 0.00117722, cell count 107
bounding box: xmin inf inf inf, xmax -inf -inf -infm 
