Start run at lun mar 27 22:06:39 ART 2023
PYTHON_CS_XFLAGS=' -O0 -g3 -ggdb3 -I/usr/include/jsoncpp ' /share/storage/pub/mstorti/saturne-vof/bin/code_saturne  run --param setup.xml

The following have been reloaded with a version change:
  1) llvm/6.0.0 => llvm/3.4.2


The following have been reloaded with a version change:
  1) llvm/3.4.2 => llvm/6.0.0

cs_user_scripts: hostname pirayu

                      Code_Saturne
                      ************

 Version:   6.1-alpha
 Path:      /share/storage/pub/mstorti/saturne-vof

 Result directory:
   /share/storage/finzeo/Simulaciones/CS_GTS_test/RESU/20230327-2206


 ****************************************
  Compiling user subroutines and linking
 ****************************************


 ****************************
  Preparing calculation data
 ****************************

 Single processor Code_Saturne simulation.


 ***************************
  Preprocessing calculation
 ***************************


 **********************
  Starting calculation
 **********************

slurmstepd: error: Job 149177 exceeded memory limit (6823336 > 6594560), being killed
slurmstepd: error: *** JOB 149177 ON compute-0-19 CANCELLED AT 2023-03-27T22:09:09 ***
make: *** [run] Terminado
