/share/storage/pub/mstorti/saturne-vof/libexec/code_saturne/cs_preprocess --log 
--out mesh_input /share/storage/finzeo/GTS_Tunay_2/DATA/gts_converted18.med 

  .------------------------------.
  |                              |
  |   Code_Saturne Preprocessor  |
  |                              |
  `------------------------------'

  code_saturne version 6.1-alpha   (built Tue 25 Aug 2020 04:47:33 PM ART)

  CGNS 3.4.0 file format support
  MED 3.2.0 (HDF5 1.8.14) file format support
  Reading of compressed files ('.gz') with Zlib 1.2.3



Case configuration
------------------

  Date                : Thu 28 Jul 2022 04:48:41 PM ART
  Processor           : Intel(R) Xeon(R) CPU E5-2650 v3 @ 2.30GHz
  Memory              : 132181124
  User                : finzeo ()
  Directory           : /share/storage/finzeo/GTS_Tunay_2/RESU/20220728-1648

  Case name           : preprocess
  Mesh file           : /share/storage/finzeo/GTS_Tunay_2/DATA/gts_converted18.med



Reading mesh from file in MED (EDF/CEA) format
----------------------
  Mesh file: /share/storage/finzeo/GTS_Tunay_2/DATA/gts_converted18.med


  Mesh name: gts_converted18

  Number of vertices                          :  4522391
  Number of faces                             :   137810
                                   Family 1   :    44240
                                   Family 2   :     3240
                                   Family 3   :      810
                                   Family 4   :    20682
                                   Family 5   :    11490
                                   Family 6   :    48738
                                   Family 7   :     8610
  Number of cells                             :  4354959
                                   Family 0   :  4354959

  Wall-clock time: 1.571995 s; CPU time: 1.569761 s


Done reading mesh
-----------------
  Theoretical mesh size:               329.453 Mb
  Theoretical current memory:          432.962 Mb
  Theoretical peak memory:             825.281 Mb
  Total memory used:                   993.277 Mb

  Domain coordinate extents:

  [-3.78000e+01, -1.80000e+01, -5.04000e-01]
  [ 1.17000e+02,  1.80000e+01,  3.20960e+01]
  Number of elements                    quad4 :   134321
  Number of elements                  polygon :     3489
  Number of elements                   penta6 :     3568
  Number of elements                    hexa8 :  4265391
  Number of elements               polyhedron :    86000



Defining families
-----------------


  Element orientation check.


Warning
=======
9 elements of type hexa8 are mis-oriented or highly warped


EnSight output of mesh: Orientation Error
-----------------------
  Creating file: preprocess.ensight/MESH.case
  Creating file: preprocess.ensight/mesh.geo

End of conversion to descending connectivity
--------------------------------------------
  Theoretical mesh size:               790.309 Mb
  Theoretical current memory:          893.818 Mb
  Theoretical peak memory:               1.943 Gb
  Total memory used:                     2.130 Gb


Main mesh properties
--------------------

  Number of cells:                               4354959
  Number of internal faces:                     13092552
  Number of boundary faces:                       137810
  Number of vertices:                            4522391


Definition of face and cell families
------------------------------------

  Family 1
         Group "bottomNoSlip"
  Number of boundary faces :    48738
  Family 2
         Group "bottomSlip"
  Number of boundary faces :     8610
  Family 3
         Group "gtsModel"
  Number of boundary faces :    44240
  Family 4
         Group "inlet"
  Number of boundary faces :     3240
  Family 5
         Group "lateral"
  Number of boundary faces :    20682
  Family 6
         Group "outlet"
  Number of boundary faces :      810
  Family 7
         Group "top"
  Number of boundary faces :    11490
  Family 7
         Default family
         (no group)
  Number of cells          :  4354959
  Number of internal faces : 13092552


Write output for Kernel
-----------------------

  Opening file: mesh_input

  Wrote: "start_block:dimensions"
  Wrote: "n_cells"                         ; Type: "u8"; Size: 1
  Wrote: "n_faces"                         ; Type: "u8"; Size: 1
  Wrote: "n_vertices"                      ; Type: "u8"; Size: 1
  Wrote: "face_vertices_size"              ; Type: "u8"; Size: 1
  Wrote: "n_group_classes"                 ; Type: "i8"; Size: 1
  Wrote: "n_group_class_props_max"         ; Type: "i8"; Size: 1
  Wrote: "n_groups"                        ; Type: "u8"; Size: 1
  Wrote: "group_name_index"                ; Type: "i8"; Size: 8
  Wrote: "group_name"                      ; Type: "c "; Size: 58
  Wrote: "group_class_properties"          ; Type: "i8"; Size: 8
  Wrote: "end_block:dimensions"
  Wrote: "start_block:data"
  Wrote: "face_cells"                      ; Type: "i8"; Size: 26460724
  Wrote: "cell_group_class_id"             ; Type: "i8"; Size: 4354959
  Wrote: "face_group_class_id"             ; Type: "i8"; Size: 13230362
  Wrote: "face_vertices_index"             ; Type: "u8"; Size: 13230363
  Wrote: "face_vertices"                   ; Type: "i8"; Size: 53063897
  Wrote: "vertex_coords"                   ; Type: "r8"; Size: 13567173
  Wrote: "end_block:data"
  Wrote: "EOF"

  Closing file: mesh_input


Time and memory summary
-----------------------

  User CPU time                       (sec)   :       11.43
  System CPU time                     (sec)   :        1.88
  Total time                          (sec)   :       13.70
  Total CPU time / Total time                 :        0.97

Memory use summary:

  Total memory used:                                   2.130 Gb
  Theoretical instrumented dynamic memory:             1.943 Gb


  .-----------------------.
  |                       |
  |  Preprocessor finish  |
  |                       |
  `-----------------------'


