Start run at vie sep 9 16:05:00 ART 2022
PYTHON_CS_XFLAGS=' -O0 -g3 -ggdb3 -I/usr/include/jsoncpp ' /share/storage/pub/mstorti/saturne-vof/bin/code_saturne  run --param setup.xml

The following have been reloaded with a version change:
  1) llvm/6.0.0 => llvm/3.4.2


The following have been reloaded with a version change:
  1) llvm/3.4.2 => llvm/6.0.0


                      Code_Saturne
                      ************

 Version:   6.1-alpha
 Path:      /share/storage/pub/mstorti/saturne-vof

 Result directory:
   /share/storage/finzeo/GTS_Tunay_2/RESU/20220909-1605


 ****************************************
  Compiling user subroutines and linking
 ****************************************


 ****************************
  Preparing calculation data
 ****************************

 Parallel Code_Saturne on 60 processes.


 ***************************
  Preprocessing calculation
 ***************************


 **********************
  Starting calculation
 **********************

Warning: Process to core binding is enabled and OMP_NUM_THREADS is set to non-zero (1) value
If your program has OpenMP sections, this can cause over-subscription of cores and consequently poor performance
To avoid this, please re-run your application after setting MV2_ENABLE_AFFINITY=0
Use MV2_USE_THREAD_WARNING=0 to suppress this message
step 1, time 0.000750, maxvel 3.000000, total vol 359.697, vol(u>maxvel) 0, cell count 0
bounding box (containing cells with vel>maxvel): xmin inf inf inf, xmax -inf -inf -infm 
bounding box of vehicle: xmin -2.47489 -0.161927 0.0631, xmax 0 0.161927 0.5139m 
gts area: 4.03325 
yplus max: 4.43412, yplus min: 0 
position of yplus max: -2.28486 -0.00753125 0.48394 
yplus prom: 3.85413 
forces: 26.339223 0.017418 -3.636557 
Drag coefficient: 195.839103 
torque (ref. CG): -0.004152 (roll) 1.779395 (pitch) -0.021553 (yaw) 
----------------------------------------------------- 
step 2, time 0.001500, maxvel 3.000000, total vol 359.697, vol(u>maxvel) 0, cell count 0
bounding box (containing cells with vel>maxvel): xmin inf inf inf, xmax -inf -inf -infm 
bounding box of vehicle: xmin -2.47489 -0.161927 0.0631, xmax 0 0.161927 0.5139m 
gts area: 4.03325 
yplus max: 1.0614, yplus min: 0.170071 
position of yplus max: -2.31953 -0.00684782 0.47069 
yplus prom: 0.835635 
forces: 81.527149 -0.002041 -9.923426 
Drag coefficient: 606.175955 
torque (ref. CG): 0.000487 (roll) 7.156825 (pitch) 0.002526 (yaw) 
----------------------------------------------------- 
step 3, time 0.002250, maxvel 3.000000, total vol 359.697, vol(u>maxvel) 0, cell count 0
bounding box (containing cells with vel>maxvel): xmin inf inf inf, xmax -inf -inf -infm 
bounding box of vehicle: xmin -2.47489 -0.161927 0.0631, xmax 0 0.161927 0.5139m 
gts area: 4.03325 
yplus max: 3.72404, yplus min: 0.183757 
position of yplus max: -2.47418 0.160898 0.138855 
yplus prom: 0.943771 
forces: 17.808771 0.024969 -2.124825 
Drag coefficient: 132.412929 
torque (ref. CG): -0.005953 (roll) 1.616352 (pitch) -0.030897 (yaw) 
----------------------------------------------------- 
step 4, time 0.003000, maxvel 3.000000, total vol 359.697, vol(u>maxvel) 0, cell count 0
bounding box (containing cells with vel>maxvel): xmin inf inf inf, xmax -inf -inf -infm 
bounding box of vehicle: xmin -2.47489 -0.161927 0.0631, xmax 0 0.161927 0.5139m 
gts area: 4.03325 
yplus max: 3.59723, yplus min: 0.256433 
position of yplus max: -2.47424 -0.160745 0.239563 
yplus prom: 0.917061 
forces: -0.536841 0.001635 0.072177 
Drag coefficient: -3.991552 
torque (ref. CG): -0.000390 (roll) -0.038672 (pitch) -0.002023 (yaw) 
----------------------------------------------------- 
step 5, time 0.003750, maxvel 3.000000, total vol 359.697, vol(u>maxvel) 0, cell count 0
bounding box (containing cells with vel>maxvel): xmin inf inf inf, xmax -inf -inf -infm 
bounding box of vehicle: xmin -2.47489 -0.161927 0.0631, xmax 0 0.161927 0.5139m 
gts area: 4.03325 
yplus max: 3.55339, yplus min: 0.156609 
position of yplus max: -2.47432 -0.160665 0.229698 
yplus prom: 0.91075 
forces: -0.469070 -0.003242 0.100625 
Drag coefficient: -3.487661 
torque (ref. CG): 0.000773 (roll) 0.012688 (pitch) 0.004011 (yaw) 
----------------------------------------------------- 
step 6, time 0.004500, maxvel 3.000000, total vol 359.697, vol(u>maxvel) 0, cell count 0
bounding box (containing cells with vel>maxvel): xmin inf inf inf, xmax -inf -inf -infm 
bounding box of vehicle: xmin -2.47489 -0.161927 0.0631, xmax 0 0.161927 0.5139m 
gts area: 4.03325 
yplus max: 3.62496, yplus min: 0.196595 
position of yplus max: -2.47432 -0.160665 0.229698 
yplus prom: 0.91102 
forces: 0.053067 0.000721 -0.010418 
Drag coefficient: 0.394571 
torque (ref. CG): -0.000172 (roll) -0.000240 (pitch) -0.000892 (yaw) 
----------------------------------------------------- 
step 7, time 0.005250, maxvel 3.000000, total vol 359.697, vol(u>maxvel) 0, cell count 0
bounding box (containing cells with vel>maxvel): xmin inf inf inf, xmax -inf -inf -infm 
bounding box of vehicle: xmin -2.47489 -0.161927 0.0631, xmax 0 0.161927 0.5139m 
gts area: 4.03325 
yplus max: 3.68422, yplus min: 0.185728 
position of yplus max: -2.47432 -0.160665 0.229698 
yplus prom: 0.911568 
forces: 0.117805 0.001674 -0.027981 
Drag coefficient: 0.875908 
torque (ref. CG): -0.000399 (roll) -0.006539 (pitch) -0.002072 (yaw) 
----------------------------------------------------- 
step 8, time 0.006000, maxvel 3.000000, total vol 359.697, vol(u>maxvel) 0, cell count 0
bounding box (containing cells with vel>maxvel): xmin inf inf inf, xmax -inf -inf -infm 
bounding box of vehicle: xmin -2.47489 -0.161927 0.0631, xmax 0 0.161927 0.5139m 
gts area: 4.03325 
yplus max: 3.72905, yplus min: 0.18762 
position of yplus max: -2.47432 -0.160665 0.229698 
yplus prom: 0.912115 
forces: 0.101224 0.001480 -0.024740 
Drag coefficient: 0.752627 
torque (ref. CG): -0.000353 (roll) -0.006482 (pitch) -0.001831 (yaw) 
----------------------------------------------------- 
step 9, time 0.006750, maxvel 3.000000, total vol 359.697, vol(u>maxvel) 0, cell count 0
bounding box (containing cells with vel>maxvel): xmin inf inf inf, xmax -inf -inf -infm 
bounding box of vehicle: xmin -2.47489 -0.161927 0.0631, xmax 0 0.161927 0.5139m 
gts area: 4.03325 
yplus max: 3.76621, yplus min: 0.0880621 
position of yplus max: -2.47432 -0.160665 0.229698 
yplus prom: 0.913039 
forces: 0.094998 0.001289 -0.023171 
Drag coefficient: 0.706339 
torque (ref. CG): -0.000307 (roll) -0.006024 (pitch) -0.001595 (yaw) 
----------------------------------------------------- 
step 10, time 0.007500, maxvel 3.000000, total vol 359.697, vol(u>maxvel) 0, cell count 0
bounding box (containing cells with vel>maxvel): xmin inf inf inf, xmax -inf -inf -infm 
bounding box of vehicle: xmin -2.47489 -0.161927 0.0631, xmax 0 0.161927 0.5139m 
gts area: 4.03325 
yplus max: 3.79804, yplus min: 0.152045 
position of yplus max: -2.47432 -0.160665 0.229698 
yplus prom: 0.91457 
forces: 0.095518 0.001233 -0.023186 
Drag coefficient: 0.710199 
torque (ref. CG): -0.000294 (roll) -0.005919 (pitch) -0.001525 (yaw) 
----------------------------------------------------- 
step 11, time 0.008250, maxvel 3.000000, total vol 359.697, vol(u>maxvel) 0, cell count 0
bounding box (containing cells with vel>maxvel): xmin inf inf inf, xmax -inf -inf -infm 
bounding box of vehicle: xmin -2.47489 -0.161927 0.0631, xmax 0 0.161927 0.5139m 
gts area: 4.03325 
yplus max: 3.82562, yplus min: 0.160873 
position of yplus max: -2.47432 -0.160665 0.229698 
yplus prom: 0.916564 
forces: 0.096755 0.001220 -0.023431 
Drag coefficient: 0.719400 
torque (ref. CG): -0.000291 (roll) -0.005927 (pitch) -0.001509 (yaw) 
----------------------------------------------------- 
step 12, time 0.009000, maxvel 3.000000, total vol 359.697, vol(u>maxvel) 0, cell count 0
bounding box (containing cells with vel>maxvel): xmin inf inf inf, xmax -inf -inf -infm 
bounding box of vehicle: xmin -2.47489 -0.161927 0.0631, xmax 0 0.161927 0.5139m 
gts area: 4.03325 
yplus max: 3.8498, yplus min: 0.120802 
position of yplus max: -2.47432 -0.160665 0.229698 
yplus prom: 0.918757 
forces: 0.097692 0.001206 -0.023618 
Drag coefficient: 0.726364 
torque (ref. CG): -0.000288 (roll) -0.005936 (pitch) -0.001493 (yaw) 
----------------------------------------------------- 
step 13, time 0.009750, maxvel 3.000000, total vol 359.697, vol(u>maxvel) 0, cell count 0
bounding box (containing cells with vel>maxvel): xmin inf inf inf, xmax -inf -inf -infm 
bounding box of vehicle: xmin -2.47489 -0.161927 0.0631, xmax 0 0.161927 0.5139m 
gts area: 4.03325 
yplus max: 3.87121, yplus min: 0.14459 
position of yplus max: -2.47432 -0.160665 0.229698 
yplus prom: 0.921086 
forces: 0.098465 0.001201 -0.023770 
Drag coefficient: 0.732116 
torque (ref. CG): -0.000286 (roll) -0.005939 (pitch) -0.001486 (yaw) 
----------------------------------------------------- 
step 14, time 0.010500, maxvel 3.000000, total vol 359.697, vol(u>maxvel) 0, cell count 0
bounding box (containing cells with vel>maxvel): xmin inf inf inf, xmax -inf -inf -infm 
bounding box of vehicle: xmin -2.47489 -0.161927 0.0631, xmax 0 0.161927 0.5139m 
gts area: 4.03325 
yplus max: 3.8904, yplus min: 0.0918802 
position of yplus max: -2.47432 -0.160665 0.229698 
yplus prom: 0.923423 
forces: 0.099212 0.001196 -0.023912 
Drag coefficient: 0.737668 
torque (ref. CG): -0.000285 (roll) -0.005937 (pitch) -0.001480 (yaw) 
----------------------------------------------------- 
step 15, time 0.011250, maxvel 3.000000, total vol 359.697, vol(u>maxvel) 0, cell count 0
bounding box (containing cells with vel>maxvel): xmin inf inf inf, xmax -inf -inf -infm 
bounding box of vehicle: xmin -2.47489 -0.161927 0.0631, xmax 0 0.161927 0.5139m 
gts area: 4.03325 
yplus max: 3.90775, yplus min: 0.0915702 
position of yplus max: -2.47432 -0.160665 0.229698 
yplus prom: 0.925731 
forces: 0.099954 0.001190 -0.024048 
Drag coefficient: 0.743181 
torque (ref. CG): -0.000284 (roll) -0.005928 (pitch) -0.001472 (yaw) 
----------------------------------------------------- 
step 16, time 0.012000, maxvel 3.000000, total vol 359.697, vol(u>maxvel) 0, cell count 0
bounding box (containing cells with vel>maxvel): xmin inf inf inf, xmax -inf -inf -infm 
bounding box of vehicle: xmin -2.47489 -0.161927 0.0631, xmax 0 0.161927 0.5139m 
gts area: 4.03325 
yplus max: 3.92358, yplus min: 0.114095 
position of yplus max: -2.47432 -0.160665 0.229698 
yplus prom: 0.928 
forces: 0.100680 0.001188 -0.024184 
Drag coefficient: 0.748581 
torque (ref. CG): -0.000283 (roll) -0.005923 (pitch) -0.001470 (yaw) 
----------------------------------------------------- 
step 17, time 0.012750, maxvel 3.000000, total vol 359.697, vol(u>maxvel) 0, cell count 0
bounding box (containing cells with vel>maxvel): xmin inf inf inf, xmax -inf -inf -infm 
bounding box of vehicle: xmin -2.47489 -0.161927 0.0631, xmax 0 0.161927 0.5139m 
gts area: 4.03325 
yplus max: 3.93812, yplus min: 0.111548 
position of yplus max: -2.47432 -0.160665 0.229698 
yplus prom: 0.930225 
forces: 0.101390 0.001186 -0.024316 
Drag coefficient: 0.753860 
torque (ref. CG): -0.000283 (roll) -0.005918 (pitch) -0.001468 (yaw) 
----------------------------------------------------- 
step 18, time 0.013500, maxvel 3.000000, total vol 359.697, vol(u>maxvel) 0, cell count 0
bounding box (containing cells with vel>maxvel): xmin inf inf inf, xmax -inf -inf -infm 
bounding box of vehicle: xmin -2.47489 -0.161927 0.0631, xmax 0 0.161927 0.5139m 
gts area: 4.03325 
yplus max: 3.95155, yplus min: 0.111208 
position of yplus max: -2.47432 -0.160665 0.229698 
yplus prom: 0.932398 
forces: 0.102085 0.001184 -0.024444 
Drag coefficient: 0.759032 
torque (ref. CG): -0.000282 (roll) -0.005910 (pitch) -0.001465 (yaw) 
----------------------------------------------------- 
step 19, time 0.014250, maxvel 3.000000, total vol 359.697, vol(u>maxvel) 0, cell count 0
bounding box (containing cells with vel>maxvel): xmin inf inf inf, xmax -inf -inf -infm 
bounding box of vehicle: xmin -2.47489 -0.161927 0.0631, xmax 0 0.161927 0.5139m 
gts area: 4.03325 
yplus max: 3.96402, yplus min: 0.120127 
position of yplus max: -2.47432 -0.160665 0.229698 
yplus prom: 0.934508 
forces: 0.102766 0.001182 -0.024570 
Drag coefficient: 0.764096 
torque (ref. CG): -0.000282 (roll) -0.005903 (pitch) -0.001463 (yaw) 
----------------------------------------------------- 
step 20, time 0.015000, maxvel 3.000000, total vol 359.697, vol(u>maxvel) 0, cell count 0
bounding box (containing cells with vel>maxvel): xmin inf inf inf, xmax -inf -inf -infm 
bounding box of vehicle: xmin -2.47489 -0.161927 0.0631, xmax 0 0.161927 0.5139m 
gts area: 4.03325 
yplus max: 3.97563, yplus min: 0.104145 
position of yplus max: -2.47432 -0.160665 0.229698 
yplus prom: 0.936547 
forces: 0.103434 0.001180 -0.024693 
Drag coefficient: 0.769058 
torque (ref. CG): -0.000281 (roll) -0.005897 (pitch) -0.001461 (yaw) 
----------------------------------------------------- 
step 21, time 0.015750, maxvel 3.000000, total vol 359.697, vol(u>maxvel) 0, cell count 0
bounding box (containing cells with vel>maxvel): xmin inf inf inf, xmax -inf -inf -infm 
bounding box of vehicle: xmin -2.47489 -0.161927 0.0631, xmax 0 0.161927 0.5139m 
gts area: 4.03325 
yplus max: 3.98648, yplus min: 0.13809 
position of yplus max: -2.47432 -0.160665 0.229698 
yplus prom: 0.938519 
forces: 0.104085 0.001179 -0.024815 
Drag coefficient: 0.773901 
torque (ref. CG): -0.000281 (roll) -0.005893 (pitch) -0.001459 (yaw) 
----------------------------------------------------- 
step 22, time 0.016500, maxvel 3.000000, total vol 359.697, vol(u>maxvel) 0, cell count 0
bounding box (containing cells with vel>maxvel): xmin inf inf inf, xmax -inf -inf -infm 
bounding box of vehicle: xmin -2.47489 -0.161927 0.0631, xmax 0 0.161927 0.5139m 
gts area: 4.03325 
yplus max: 3.99664, yplus min: 0.141721 
position of yplus max: -2.47432 -0.160665 0.229698 
yplus prom: 0.940428 
forces: 0.104724 0.001178 -0.024935 
Drag coefficient: 0.778651 
torque (ref. CG): -0.000281 (roll) -0.005889 (pitch) -0.001458 (yaw) 
----------------------------------------------------- 
step 23, time 0.017250, maxvel 3.000000, total vol 359.697, vol(u>maxvel) 0, cell count 0
bounding box (containing cells with vel>maxvel): xmin inf inf inf, xmax -inf -inf -infm 
bounding box of vehicle: xmin -2.47489 -0.161927 0.0631, xmax 0 0.161927 0.5139m 
gts area: 4.03325 
yplus max: 4.00614, yplus min: 0.131266 
position of yplus max: -2.47432 -0.160665 0.229698 
yplus prom: 0.942269 
forces: 0.105349 0.001177 -0.025053 
Drag coefficient: 0.783299 
torque (ref. CG): -0.000281 (roll) -0.005886 (pitch) -0.001457 (yaw) 
----------------------------------------------------- 
step 24, time 0.018000, maxvel 3.000000, total vol 359.697, vol(u>maxvel) 0, cell count 0
bounding box (containing cells with vel>maxvel): xmin inf inf inf, xmax -inf -inf -infm 
bounding box of vehicle: xmin -2.47489 -0.161927 0.0631, xmax 0 0.161927 0.5139m 
gts area: 4.03325 
yplus max: 4.01501, yplus min: 0.118054 
position of yplus max: -2.47432 -0.160665 0.229698 
yplus prom: 0.944045 
forces: 0.105962 0.001176 -0.025169 
Drag coefficient: 0.787854 
torque (ref. CG): -0.000280 (roll) -0.005883 (pitch) -0.001456 (yaw) 
----------------------------------------------------- 
step 25, time 0.018750, maxvel 3.000000, total vol 359.697, vol(u>maxvel) 0, cell count 0
bounding box (containing cells with vel>maxvel): xmin inf inf inf, xmax -inf -inf -infm 
bounding box of vehicle: xmin -2.47489 -0.161927 0.0631, xmax 0 0.161927 0.5139m 
gts area: 4.03325 
yplus max: 4.02328, yplus min: 0.13199 
position of yplus max: -2.47432 -0.160665 0.229698 
yplus prom: 0.945757 
forces: 0.106561 0.001176 -0.025283 
Drag coefficient: 0.792312 
torque (ref. CG): -0.000280 (roll) -0.005881 (pitch) -0.001455 (yaw) 
----------------------------------------------------- 
step 26, time 0.019500, maxvel 3.000000, total vol 359.697, vol(u>maxvel) 0, cell count 0
bounding box (containing cells with vel>maxvel): xmin inf inf inf, xmax -inf -inf -infm 
bounding box of vehicle: xmin -2.47489 -0.161927 0.0631, xmax 0 0.161927 0.5139m 
gts area: 4.03325 
yplus max: 4.031, yplus min: 0.128497 
position of yplus max: -2.47432 -0.160665 0.229698 
yplus prom: 0.947407 
forces: 0.107148 0.001175 -0.025396 
Drag coefficient: 0.796675 
torque (ref. CG): -0.000280 (roll) -0.005881 (pitch) -0.001453 (yaw) 
----------------------------------------------------- 
step 27, time 0.020250, maxvel 3.000000, total vol 359.697, vol(u>maxvel) 0, cell count 0
bounding box (containing cells with vel>maxvel): xmin inf inf inf, xmax -inf -inf -infm 
bounding box of vehicle: xmin -2.47489 -0.161927 0.0631, xmax 0 0.161927 0.5139m 
gts area: 4.03325 
yplus max: 4.03821, yplus min: 0.12134 
position of yplus max: -2.47432 -0.160665 0.229698 
yplus prom: 0.949 
forces: 0.107722 0.001174 -0.025508 
Drag coefficient: 0.800942 
torque (ref. CG): -0.000280 (roll) -0.005882 (pitch) -0.001453 (yaw) 
----------------------------------------------------- 
step 28, time 0.021000, maxvel 3.000000, total vol 359.697, vol(u>maxvel) 0, cell count 0
bounding box (containing cells with vel>maxvel): xmin inf inf inf, xmax -inf -inf -infm 
bounding box of vehicle: xmin -2.47489 -0.161927 0.0631, xmax 0 0.161927 0.5139m 
gts area: 4.03325 
yplus max: 4.04493, yplus min: 0.115332 
position of yplus max: -2.47432 -0.160665 0.229698 
yplus prom: 0.950538 
forces: 0.108284 0.001174 -0.025618 
Drag coefficient: 0.805121 
torque (ref. CG): -0.000280 (roll) -0.005885 (pitch) -0.001452 (yaw) 
----------------------------------------------------- 
step 29, time 0.021750, maxvel 3.000000, total vol 359.697, vol(u>maxvel) 0, cell count 0
bounding box (containing cells with vel>maxvel): xmin inf inf inf, xmax -inf -inf -infm 
bounding box of vehicle: xmin -2.47489 -0.161927 0.0631, xmax 0 0.161927 0.5139m 
gts area: 4.03325 
yplus max: 4.05118, yplus min: 0.113421 
position of yplus max: -2.47432 -0.160665 0.229698 
yplus prom: 0.952021 
forces: 0.108835 0.001173 -0.025727 
Drag coefficient: 0.809214 
torque (ref. CG): -0.000280 (roll) -0.005889 (pitch) -0.001452 (yaw) 
----------------------------------------------------- 
step 30, time 0.022500, maxvel 3.000000, total vol 359.697, vol(u>maxvel) 0, cell count 0
bounding box (containing cells with vel>maxvel): xmin inf inf inf, xmax -inf -inf -infm 
bounding box of vehicle: xmin -2.47489 -0.161927 0.0631, xmax 0 0.161927 0.5139m 
gts area: 4.03325 
yplus max: 4.05701, yplus min: 0.0654885 
position of yplus max: -2.47432 -0.160665 0.229698 
yplus prom: 0.953453 
forces: 0.109374 0.001174 -0.025835 
Drag coefficient: 0.813221 
torque (ref. CG): -0.000280 (roll) -0.005894 (pitch) -0.001452 (yaw) 
----------------------------------------------------- 
step 31, time 0.023250, maxvel 3.000000, total vol 359.697, vol(u>maxvel) 0, cell count 0
bounding box (containing cells with vel>maxvel): xmin inf inf inf, xmax -inf -inf -infm 
bounding box of vehicle: xmin -2.47489 -0.161927 0.0631, xmax 0 0.161927 0.5139m 
gts area: 4.03325 
yplus max: 4.06244, yplus min: 0.128591 
position of yplus max: -2.47432 -0.160665 0.229698 
yplus prom: 0.954841 
forces: 0.109902 0.001174 -0.025941 
Drag coefficient: 0.817151 
torque (ref. CG): -0.000280 (roll) -0.005899 (pitch) -0.001452 (yaw) 
----------------------------------------------------- 
step 32, time 0.024000, maxvel 3.000000, total vol 359.697, vol(u>maxvel) 0, cell count 0
bounding box (containing cells with vel>maxvel): xmin inf inf inf, xmax -inf -inf -infm 
bounding box of vehicle: xmin -2.47489 -0.161927 0.0631, xmax 0 0.161927 0.5139m 
gts area: 4.03325 
yplus max: 4.06748, yplus min: 0.123408 
position of yplus max: -2.47432 -0.160665 0.229698 
yplus prom: 0.956181 
forces: 0.110418 0.001173 -0.026046 
Drag coefficient: 0.820984 
torque (ref. CG): -0.000280 (roll) -0.005906 (pitch) -0.001452 (yaw) 
----------------------------------------------------- 
step 33, time 0.024750, maxvel 3.000000, total vol 359.697, vol(u>maxvel) 0, cell count 0
bounding box (containing cells with vel>maxvel): xmin inf inf inf, xmax -inf -inf -infm 
bounding box of vehicle: xmin -2.47489 -0.161927 0.0631, xmax 0 0.161927 0.5139m 
gts area: 4.03325 
yplus max: 4.07216, yplus min: 0.0891246 
position of yplus max: -2.47432 -0.160665 0.229698 
yplus prom: 0.957476 
forces: 0.110923 0.001175 -0.026152 
Drag coefficient: 0.824740 
torque (ref. CG): -0.000280 (roll) -0.005916 (pitch) -0.001454 (yaw) 
----------------------------------------------------- 
step 34, time 0.025500, maxvel 3.000000, total vol 359.697, vol(u>maxvel) 0, cell count 0
bounding box (containing cells with vel>maxvel): xmin inf inf inf, xmax -inf -inf -infm 
bounding box of vehicle: xmin -2.47489 -0.161927 0.0631, xmax 0 0.161927 0.5139m 
gts area: 4.03325 
yplus max: 4.07649, yplus min: 0.108302 
position of yplus max: -2.47432 -0.160665 0.229698 
yplus prom: 0.958731 
forces: 0.111415 0.001174 -0.026255 
Drag coefficient: 0.828403 
torque (ref. CG): -0.000280 (roll) -0.005926 (pitch) -0.001453 (yaw) 
----------------------------------------------------- 
step 35, time 0.026250, maxvel 3.000000, total vol 359.697, vol(u>maxvel) 0, cell count 0
bounding box (containing cells with vel>maxvel): xmin inf inf inf, xmax -inf -inf -infm 
bounding box of vehicle: xmin -2.47489 -0.161927 0.0631, xmax 0 0.161927 0.5139m 
gts area: 4.03325 
yplus max: 4.0805, yplus min: 0.124926 
position of yplus max: -2.47432 -0.160665 0.229698 
yplus prom: 0.959945 
forces: 0.111897 0.001174 -0.026357 
Drag coefficient: 0.831984 
torque (ref. CG): -0.000280 (roll) -0.005937 (pitch) -0.001452 (yaw) 
----------------------------------------------------- 
step 36, time 0.027000, maxvel 3.000000, total vol 359.697, vol(u>maxvel) 0, cell count 0
bounding box (containing cells with vel>maxvel): xmin inf inf inf, xmax -inf -inf -infm 
bounding box of vehicle: xmin -2.47489 -0.161927 0.0631, xmax 0 0.161927 0.5139m 
gts area: 4.03325 
yplus max: 4.0842, yplus min: 0.117888 
position of yplus max: -2.47432 -0.160665 0.229698 
yplus prom: 0.961117 
forces: 0.112370 0.001176 -0.026459 
Drag coefficient: 0.835500 
torque (ref. CG): -0.000280 (roll) -0.005952 (pitch) -0.001455 (yaw) 
----------------------------------------------------- 
step 37, time 0.027750, maxvel 3.000000, total vol 359.697, vol(u>maxvel) 0, cell count 0
bounding box (containing cells with vel>maxvel): xmin inf inf inf, xmax -inf -inf -infm 
bounding box of vehicle: xmin -2.47489 -0.161927 0.0631, xmax 0 0.161927 0.5139m 
gts area: 4.03325 
yplus max: 4.0876, yplus min: 0.0346009 
position of yplus max: -2.47432 -0.160665 0.229698 
yplus prom: 0.962249 
forces: 0.112830 0.001176 -0.026559 
Drag coefficient: 0.838922 
torque (ref. CG): -0.000280 (roll) -0.005965 (pitch) -0.001455 (yaw) 
----------------------------------------------------- 
step 38, time 0.028500, maxvel 3.000000, total vol 359.697, vol(u>maxvel) 0, cell count 0
bounding box (containing cells with vel>maxvel): xmin inf inf inf, xmax -inf -inf -infm 
bounding box of vehicle: xmin -2.47489 -0.161927 0.0631, xmax 0 0.161927 0.5139m 
gts area: 4.03325 
yplus max: 4.09069, yplus min: 0.0567212 
position of yplus max: -2.47432 -0.160665 0.229698 
yplus prom: 0.963345 
forces: 0.113282 0.001175 -0.026658 
Drag coefficient: 0.842280 
torque (ref. CG): -0.000280 (roll) -0.005980 (pitch) -0.001455 (yaw) 
----------------------------------------------------- 
step 39, time 0.029250, maxvel 3.000000, total vol 359.697, vol(u>maxvel) 0, cell count 0
bounding box (containing cells with vel>maxvel): xmin inf inf inf, xmax -inf -inf -infm 
bounding box of vehicle: xmin -2.47489 -0.161927 0.0631, xmax 0 0.161927 0.5139m 
gts area: 4.03325 
yplus max: 4.09349, yplus min: 0.0627674 
position of yplus max: -2.47432 -0.160665 0.229698 
yplus prom: 0.964404 
forces: 0.113722 0.001176 -0.026756 
Drag coefficient: 0.845556 
torque (ref. CG): -0.000280 (roll) -0.005997 (pitch) -0.001455 (yaw) 
----------------------------------------------------- 
step 40, time 0.030000, maxvel 3.000000, total vol 359.697, vol(u>maxvel) 0, cell count 0
bounding box (containing cells with vel>maxvel): xmin inf inf inf, xmax -inf -inf -infm 
bounding box of vehicle: xmin -2.47489 -0.161927 0.0631, xmax 0 0.161927 0.5139m 
gts area: 4.03325 
yplus max: 4.096, yplus min: 0.0563281 
position of yplus max: -2.47432 -0.160665 0.229698 
yplus prom: 0.965423 
forces: 0.114153 0.001176 -0.026854 
Drag coefficient: 0.848757 
torque (ref. CG): -0.000280 (roll) -0.006015 (pitch) -0.001455 (yaw) 
----------------------------------------------------- 
step 41, time 0.030750, maxvel 3.000000, total vol 359.697, vol(u>maxvel) 0, cell count 0
bounding box (containing cells with vel>maxvel): xmin inf inf inf, xmax -inf -inf -infm 
bounding box of vehicle: xmin -2.47489 -0.161927 0.0631, xmax 0 0.161927 0.5139m 
gts area: 4.03325 
yplus max: 4.09825, yplus min: 0.123601 
position of yplus max: -2.47432 -0.160665 0.229698 
yplus prom: 0.966406 
forces: 0.114573 0.001176 -0.026950 
Drag coefficient: 0.851882 
torque (ref. CG): -0.000280 (roll) -0.006033 (pitch) -0.001456 (yaw) 
----------------------------------------------------- 
step 42, time 0.031500, maxvel 3.000000, total vol 359.697, vol(u>maxvel) 0, cell count 0
bounding box (containing cells with vel>maxvel): xmin inf inf inf, xmax -inf -inf -infm 
bounding box of vehicle: xmin -2.47489 -0.161927 0.0631, xmax 0 0.161927 0.5139m 
gts area: 4.03325 
yplus max: 4.10025, yplus min: 0.131733 
position of yplus max: -2.47432 -0.160665 0.229698 
yplus prom: 0.96735 
forces: 0.114984 0.001177 -0.027045 
Drag coefficient: 0.854933 
torque (ref. CG): -0.000281 (roll) -0.006054 (pitch) -0.001456 (yaw) 
----------------------------------------------------- 
step 43, time 0.032250, maxvel 3.000000, total vol 359.697, vol(u>maxvel) 0, cell count 0
bounding box (containing cells with vel>maxvel): xmin inf inf inf, xmax -inf -inf -infm 
bounding box of vehicle: xmin -2.47489 -0.161927 0.0631, xmax 0 0.161927 0.5139m 
gts area: 4.03325 
yplus max: 4.10202, yplus min: 0.111128 
position of yplus max: -2.47432 -0.160665 0.229698 
yplus prom: 0.968257 
forces: 0.115384 0.001177 -0.027140 
Drag coefficient: 0.857913 
torque (ref. CG): -0.000281 (roll) -0.006076 (pitch) -0.001456 (yaw) 
----------------------------------------------------- 
step 44, time 0.033000, maxvel 3.000000, total vol 359.697, vol(u>maxvel) 0, cell count 0
bounding box (containing cells with vel>maxvel): xmin inf inf inf, xmax -inf -inf -infm 
bounding box of vehicle: xmin -2.47489 -0.161927 0.0631, xmax 0 0.161927 0.5139m 
gts area: 4.03325 
yplus max: 4.10352, yplus min: 0.0746529 
position of yplus max: -2.47432 -0.160665 0.229698 
yplus prom: 0.969129 
forces: 0.115775 0.001177 -0.027234 
Drag coefficient: 0.860820 
torque (ref. CG): -0.000281 (roll) -0.006099 (pitch) -0.001457 (yaw) 
----------------------------------------------------- 
step 45, time 0.033750, maxvel 3.000000, total vol 359.697, vol(u>maxvel) 0, cell count 0
bounding box (containing cells with vel>maxvel): xmin inf inf inf, xmax -inf -inf -infm 
bounding box of vehicle: xmin -2.47489 -0.161927 0.0631, xmax 0 0.161927 0.5139m 
gts area: 4.03325 
yplus max: 4.10492, yplus min: 0.0664563 
position of yplus max: -2.47422 0.16113 0.106396 
yplus prom: 0.969965 
forces: 0.116157 0.001177 -0.027327 
Drag coefficient: 0.863655 
torque (ref. CG): -0.000281 (roll) -0.006123 (pitch) -0.001457 (yaw) 
----------------------------------------------------- 
step 46, time 0.034500, maxvel 3.000000, total vol 359.697, vol(u>maxvel) 0, cell count 0
bounding box (containing cells with vel>maxvel): xmin inf inf inf, xmax -inf -inf -infm 
bounding box of vehicle: xmin -2.47489 -0.161927 0.0631, xmax 0 0.161927 0.5139m 
gts area: 4.03325 
yplus max: 4.10648, yplus min: 0.101762 
position of yplus max: -2.47422 0.16113 0.106396 
yplus prom: 0.97077 
forces: 0.116528 0.001177 -0.027419 
Drag coefficient: 0.866417 
torque (ref. CG): -0.000281 (roll) -0.006148 (pitch) -0.001457 (yaw) 
----------------------------------------------------- 
step 47, time 0.035250, maxvel 3.000000, total vol 359.697, vol(u>maxvel) 0, cell count 0
bounding box (containing cells with vel>maxvel): xmin inf inf inf, xmax -inf -inf -infm 
bounding box of vehicle: xmin -2.47489 -0.161927 0.0631, xmax 0 0.161927 0.5139m 
gts area: 4.03325 
yplus max: 4.10786, yplus min: 0.0980468 
position of yplus max: -2.47422 0.16113 0.106396 
yplus prom: 0.971543 
forces: 0.116890 0.001177 -0.027510 
Drag coefficient: 0.869107 
torque (ref. CG): -0.000281 (roll) -0.006174 (pitch) -0.001456 (yaw) 
----------------------------------------------------- 
step 48, time 0.036000, maxvel 3.000000, total vol 359.697, vol(u>maxvel) 0, cell count 0
bounding box (containing cells with vel>maxvel): xmin inf inf inf, xmax -inf -inf -infm 
bounding box of vehicle: xmin -2.47489 -0.161927 0.0631, xmax 0 0.161927 0.5139m 
gts area: 4.03325 
yplus max: 4.10909, yplus min: 0.106538 
position of yplus max: -2.47422 0.16113 0.106396 
yplus prom: 0.972281 
forces: 0.117242 0.001177 -0.027600 
Drag coefficient: 0.871727 
torque (ref. CG): -0.000281 (roll) -0.006202 (pitch) -0.001456 (yaw) 
----------------------------------------------------- 
step 49, time 0.036750, maxvel 3.000000, total vol 359.697, vol(u>maxvel) 0, cell count 0
bounding box (containing cells with vel>maxvel): xmin inf inf inf, xmax -inf -inf -infm 
bounding box of vehicle: xmin -2.47489 -0.161927 0.0631, xmax 0 0.161927 0.5139m 
gts area: 4.03325 
yplus max: 4.11016, yplus min: 0.0839688 
position of yplus max: -2.47422 0.16113 0.106396 
yplus prom: 0.972986 
forces: 0.117585 0.001177 -0.027689 
Drag coefficient: 0.874275 
torque (ref. CG): -0.000280 (roll) -0.006230 (pitch) -0.001456 (yaw) 
----------------------------------------------------- 
step 50, time 0.037500, maxvel 3.000000, total vol 359.697, vol(u>maxvel) 0, cell count 0
bounding box (containing cells with vel>maxvel): xmin inf inf inf, xmax -inf -inf -infm 
bounding box of vehicle: xmin -2.47489 -0.161927 0.0631, xmax 0 0.161927 0.5139m 
gts area: 4.03325 
yplus max: 4.11108, yplus min: 0.0735718 
position of yplus max: -2.47422 0.16113 0.106396 
yplus prom: 0.973659 
forces: 0.117919 0.001176 -0.027777 
Drag coefficient: 0.876758 
torque (ref. CG): -0.000280 (roll) -0.006259 (pitch) -0.001456 (yaw) 
----------------------------------------------------- 
step 51, time 0.038250, maxvel 3.000000, total vol 359.697, vol(u>maxvel) 0, cell count 0
bounding box (containing cells with vel>maxvel): xmin inf inf inf, xmax -inf -inf -infm 
bounding box of vehicle: xmin -2.47489 -0.161927 0.0631, xmax 0 0.161927 0.5139m 
gts area: 4.03325 
yplus max: 4.11187, yplus min: 0.0970444 
position of yplus max: -2.47422 0.16113 0.106396 
yplus prom: 0.974301 
forces: 0.118244 0.001177 -0.027863 
Drag coefficient: 0.879174 
torque (ref. CG): -0.000280 (roll) -0.006289 (pitch) -0.001456 (yaw) 
----------------------------------------------------- 
step 52, time 0.039000, maxvel 3.000000, total vol 359.697, vol(u>maxvel) 0, cell count 0
bounding box (containing cells with vel>maxvel): xmin inf inf inf, xmax -inf -inf -infm 
bounding box of vehicle: xmin -2.47489 -0.161927 0.0631, xmax 0 0.161927 0.5139m 
gts area: 4.03325 
yplus max: 4.11253, yplus min: 0.102366 
position of yplus max: -2.47422 0.16113 0.106396 
yplus prom: 0.974915 
forces: 0.118560 0.001177 -0.027949 
Drag coefficient: 0.881523 
torque (ref. CG): -0.000281 (roll) -0.006319 (pitch) -0.001456 (yaw) 
----------------------------------------------------- 
step 53, time 0.039750, maxvel 3.000000, total vol 359.697, vol(u>maxvel) 0, cell count 0
bounding box (containing cells with vel>maxvel): xmin inf inf inf, xmax -inf -inf -infm 
bounding box of vehicle: xmin -2.47489 -0.161927 0.0631, xmax 0 0.161927 0.5139m 
gts area: 4.03325 
yplus max: 4.11308, yplus min: 0.0997269 
position of yplus max: -2.47422 0.16113 0.106396 
yplus prom: 0.975497 
forces: 0.118867 0.001177 -0.028034 
Drag coefficient: 0.883809 
torque (ref. CG): -0.000281 (roll) -0.006351 (pitch) -0.001456 (yaw) 
----------------------------------------------------- 
step 54, time 0.040500, maxvel 3.000000, total vol 359.697, vol(u>maxvel) 0, cell count 0
bounding box (containing cells with vel>maxvel): xmin inf inf inf, xmax -inf -inf -infm 
bounding box of vehicle: xmin -2.47489 -0.161927 0.0631, xmax 0 0.161927 0.5139m 
gts area: 4.03325 
yplus max: 4.11351, yplus min: 0.057088 
position of yplus max: -2.47422 0.16113 0.106396 
yplus prom: 0.976049 
forces: 0.119166 0.001176 -0.028118 
Drag coefficient: 0.886032 
torque (ref. CG): -0.000280 (roll) -0.006384 (pitch) -0.001456 (yaw) 
----------------------------------------------------- 
step 55, time 0.041250, maxvel 3.000000, total vol 359.697, vol(u>maxvel) 0, cell count 0
bounding box (containing cells with vel>maxvel): xmin inf inf inf, xmax -inf -inf -infm 
bounding box of vehicle: xmin -2.47489 -0.161927 0.0631, xmax 0 0.161927 0.5139m 
gts area: 4.03325 
yplus max: 4.11384, yplus min: 0.0627451 
position of yplus max: -2.47422 0.16113 0.106396 
yplus prom: 0.976572 
forces: 0.119457 0.001176 -0.028200 
Drag coefficient: 0.888193 
torque (ref. CG): -0.000280 (roll) -0.006417 (pitch) -0.001455 (yaw) 
----------------------------------------------------- 
step 56, time 0.042000, maxvel 3.000000, total vol 359.697, vol(u>maxvel) 0, cell count 0
bounding box (containing cells with vel>maxvel): xmin inf inf inf, xmax -inf -inf -infm 
bounding box of vehicle: xmin -2.47489 -0.161927 0.0631, xmax 0 0.161927 0.5139m 
gts area: 4.03325 
yplus max: 4.11407, yplus min: 0.0795975 
position of yplus max: -2.47422 0.16113 0.106396 
yplus prom: 0.977074 
forces: 0.119739 0.001175 -0.028282 
Drag coefficient: 0.890295 
torque (ref. CG): -0.000280 (roll) -0.006450 (pitch) -0.001454 (yaw) 
----------------------------------------------------- 
step 57, time 0.042750, maxvel 3.000000, total vol 359.697, vol(u>maxvel) 0, cell count 0
bounding box (containing cells with vel>maxvel): xmin inf inf inf, xmax -inf -inf -infm 
bounding box of vehicle: xmin -2.47489 -0.161927 0.0631, xmax 0 0.161927 0.5139m 
gts area: 4.03325 
yplus max: 4.1142, yplus min: 0.0911052 
position of yplus max: -2.47422 0.16113 0.106396 
yplus prom: 0.97755 
forces: 0.120014 0.001174 -0.028362 
Drag coefficient: 0.892337 
torque (ref. CG): -0.000280 (roll) -0.006484 (pitch) -0.001453 (yaw) 
----------------------------------------------------- 
step 58, time 0.043500, maxvel 3.000000, total vol 359.697, vol(u>maxvel) 0, cell count 0
bounding box (containing cells with vel>maxvel): xmin inf inf inf, xmax -inf -inf -infm 
bounding box of vehicle: xmin -2.47489 -0.161927 0.0631, xmax 0 0.161927 0.5139m 
gts area: 4.03325 
yplus max: 4.11425, yplus min: 0.0862602 
position of yplus max: -2.47422 0.16113 0.106396 
yplus prom: 0.977996 
forces: 0.120281 0.001174 -0.028441 
Drag coefficient: 0.894320 
torque (ref. CG): -0.000280 (roll) -0.006518 (pitch) -0.001452 (yaw) 
----------------------------------------------------- 
step 59, time 0.044250, maxvel 3.000000, total vol 359.697, vol(u>maxvel) 0, cell count 0
bounding box (containing cells with vel>maxvel): xmin inf inf inf, xmax -inf -inf -infm 
bounding box of vehicle: xmin -2.47489 -0.161927 0.0631, xmax 0 0.161927 0.5139m 
gts area: 4.03325 
yplus max: 4.11422, yplus min: 0.0928685 
position of yplus max: -2.47422 0.16113 0.106396 
yplus prom: 0.978415 
forces: 0.120540 0.001173 -0.028519 
Drag coefficient: 0.896245 
torque (ref. CG): -0.000280 (roll) -0.006553 (pitch) -0.001452 (yaw) 
----------------------------------------------------- 
step 60, time 0.045000, maxvel 3.000000, total vol 359.697, vol(u>maxvel) 0, cell count 0
bounding box (containing cells with vel>maxvel): xmin inf inf inf, xmax -inf -inf -infm 
bounding box of vehicle: xmin -2.47489 -0.161927 0.0631, xmax 0 0.161927 0.5139m 
gts area: 4.03325 
yplus max: 4.11411, yplus min: 0.0908795 
position of yplus max: -2.47422 0.16113 0.106396 
yplus prom: 0.978805 
forces: 0.120791 0.001173 -0.028596 
Drag coefficient: 0.898111 
torque (ref. CG): -0.000280 (roll) -0.006589 (pitch) -0.001451 (yaw) 
----------------------------------------------------- 
step 61, time 0.045750, maxvel 3.000000, total vol 359.697, vol(u>maxvel) 0, cell count 0
bounding box (containing cells with vel>maxvel): xmin inf inf inf, xmax -inf -inf -infm 
bounding box of vehicle: xmin -2.47489 -0.161927 0.0631, xmax 0 0.161927 0.5139m 
gts area: 4.03325 
yplus max: 4.11393, yplus min: 0.0904953 
position of yplus max: -2.47422 0.16113 0.106396 
yplus prom: 0.979165 
forces: 0.121034 0.001172 -0.028672 
Drag coefficient: 0.899920 
torque (ref. CG): -0.000279 (roll) -0.006625 (pitch) -0.001450 (yaw) 
----------------------------------------------------- 
step 62, time 0.046500, maxvel 3.000000, total vol 359.697, vol(u>maxvel) 0, cell count 0
bounding box (containing cells with vel>maxvel): xmin inf inf inf, xmax -inf -inf -infm 
bounding box of vehicle: xmin -2.47489 -0.161927 0.0631, xmax 0 0.161927 0.5139m 
gts area: 4.03325 
yplus max: 4.11368, yplus min: 0.0916942 
position of yplus max: -2.47422 0.16113 0.106396 
yplus prom: 0.979497 
forces: 0.121270 0.001171 -0.028748 
Drag coefficient: 0.901673 
torque (ref. CG): -0.000279 (roll) -0.006661 (pitch) -0.001449 (yaw) 
----------------------------------------------------- 
step 63, time 0.047250, maxvel 3.000000, total vol 359.697, vol(u>maxvel) 0, cell count 0
bounding box (containing cells with vel>maxvel): xmin inf inf inf, xmax -inf -inf -infm 
bounding box of vehicle: xmin -2.47489 -0.161927 0.0631, xmax 0 0.161927 0.5139m 
gts area: 4.03325 
yplus max: 4.11337, yplus min: 0.0731642 
position of yplus max: -2.47422 0.16113 0.106396 
yplus prom: 0.979801 
forces: 0.121498 0.001171 -0.028821 
Drag coefficient: 0.903371 
torque (ref. CG): -0.000279 (roll) -0.006699 (pitch) -0.001448 (yaw) 
----------------------------------------------------- 
step 64, time 0.048000, maxvel 3.000000, total vol 359.697, vol(u>maxvel) 0, cell count 0
bounding box (containing cells with vel>maxvel): xmin inf inf inf, xmax -inf -inf -infm 
bounding box of vehicle: xmin -2.47489 -0.161927 0.0631, xmax 0 0.161927 0.5139m 
gts area: 4.03325 
yplus max: 4.113, yplus min: 0.0395229 
position of yplus max: -2.47422 0.16113 0.106396 
yplus prom: 0.980078 
forces: 0.121720 0.001170 -0.028894 
Drag coefficient: 0.905017 
torque (ref. CG): -0.000279 (roll) -0.006736 (pitch) -0.001448 (yaw) 
----------------------------------------------------- 
step 65, time 0.048750, maxvel 3.000000, total vol 359.697, vol(u>maxvel) 0, cell count 0
bounding box (containing cells with vel>maxvel): xmin inf inf inf, xmax -inf -inf -infm 
bounding box of vehicle: xmin -2.47489 -0.161927 0.0631, xmax 0 0.161927 0.5139m 
gts area: 4.03325 
yplus max: 4.11258, yplus min: 0.0607807 
position of yplus max: -2.47422 0.16113 0.106396 
yplus prom: 0.980334 
forces: 0.121934 0.001169 -0.028966 
Drag coefficient: 0.906613 
torque (ref. CG): -0.000279 (roll) -0.006774 (pitch) -0.001446 (yaw) 
----------------------------------------------------- 
step 66, time 0.049500, maxvel 3.000000, total vol 359.697, vol(u>maxvel) 0, cell count 0
bounding box (containing cells with vel>maxvel): xmin inf inf inf, xmax -inf -inf -infm 
bounding box of vehicle: xmin -2.47489 -0.161927 0.0631, xmax 0 0.161927 0.5139m 
gts area: 4.03325 
yplus max: 4.11209, yplus min: 0.0617828 
position of yplus max: -2.47422 0.16113 0.106396 
yplus prom: 0.980565 
forces: 0.122142 0.001168 -0.029037 
Drag coefficient: 0.908160 
torque (ref. CG): -0.000278 (roll) -0.006812 (pitch) -0.001445 (yaw) 
----------------------------------------------------- 
step 67, time 0.050250, maxvel 3.000000, total vol 359.697, vol(u>maxvel) 0, cell count 0
bounding box (containing cells with vel>maxvel): xmin inf inf inf, xmax -inf -inf -infm 
bounding box of vehicle: xmin -2.47489 -0.161927 0.0631, xmax 0 0.161927 0.5139m 
gts area: 4.03325 
yplus max: 4.11155, yplus min: 0.0764364 
position of yplus max: -2.47422 0.16113 0.106396 
yplus prom: 0.980773 
forces: 0.122344 0.001167 -0.029107 
Drag coefficient: 0.909659 
torque (ref. CG): -0.000278 (roll) -0.006851 (pitch) -0.001444 (yaw) 
----------------------------------------------------- 
step 68, time 0.051000, maxvel 3.000000, total vol 359.697, vol(u>maxvel) 0, cell count 0
bounding box (containing cells with vel>maxvel): xmin inf inf inf, xmax -inf -inf -infm 
bounding box of vehicle: xmin -2.47489 -0.161927 0.0631, xmax 0 0.161927 0.5139m 
gts area: 4.03325 
yplus max: 4.11097, yplus min: 0.0470866 
position of yplus max: -2.47422 0.16113 0.106396 
yplus prom: 0.980957 
forces: 0.122539 0.001166 -0.029176 
Drag coefficient: 0.911110 
torque (ref. CG): -0.000278 (roll) -0.006890 (pitch) -0.001443 (yaw) 
----------------------------------------------------- 
step 69, time 0.051750, maxvel 3.000000, total vol 359.697, vol(u>maxvel) 0, cell count 0
bounding box (containing cells with vel>maxvel): xmin inf inf inf, xmax -inf -inf -infm 
bounding box of vehicle: xmin -2.47489 -0.161927 0.0631, xmax 0 0.161927 0.5139m 
gts area: 4.03325 
yplus max: 4.11035, yplus min: 0.0452655 
position of yplus max: -2.47422 0.16113 0.106396 
yplus prom: 0.981119 
forces: 0.122728 0.001165 -0.029244 
Drag coefficient: 0.912515 
torque (ref. CG): -0.000278 (roll) -0.006928 (pitch) -0.001442 (yaw) 
----------------------------------------------------- 
step 70, time 0.052500, maxvel 3.000000, total vol 359.697, vol(u>maxvel) 0, cell count 0
bounding box (containing cells with vel>maxvel): xmin inf inf inf, xmax -inf -inf -infm 
bounding box of vehicle: xmin -2.47489 -0.161927 0.0631, xmax 0 0.161927 0.5139m 
gts area: 4.03325 
yplus max: 4.10968, yplus min: 0.0570232 
position of yplus max: -2.47422 0.16113 0.106396 
yplus prom: 0.981259 
forces: 0.122911 0.001164 -0.029311 
Drag coefficient: 0.913874 
torque (ref. CG): -0.000278 (roll) -0.006967 (pitch) -0.001440 (yaw) 
----------------------------------------------------- 
step 71, time 0.053250, maxvel 3.000000, total vol 359.697, vol(u>maxvel) 0, cell count 0
bounding box (containing cells with vel>maxvel): xmin inf inf inf, xmax -inf -inf -infm 
bounding box of vehicle: xmin -2.47489 -0.161927 0.0631, xmax 0 0.161927 0.5139m 
gts area: 4.03325 
yplus max: 4.10898, yplus min: 0.0490252 
position of yplus max: -2.47422 0.16113 0.106396 
yplus prom: 0.981376 
forces: 0.123087 0.001163 -0.029376 
Drag coefficient: 0.915188 
torque (ref. CG): -0.000277 (roll) -0.007006 (pitch) -0.001439 (yaw) 
----------------------------------------------------- 
step 72, time 0.054000, maxvel 3.000000, total vol 359.697, vol(u>maxvel) 0, cell count 0
bounding box (containing cells with vel>maxvel): xmin inf inf inf, xmax -inf -inf -infm 
bounding box of vehicle: xmin -2.47489 -0.161927 0.0631, xmax 0 0.161927 0.5139m 
gts area: 4.03325 
yplus max: 4.10825, yplus min: 0.0425286 
position of yplus max: -2.47422 0.16113 0.106396 
yplus prom: 0.98147 
forces: 0.123259 0.001162 -0.029441 
Drag coefficient: 0.916460 
torque (ref. CG): -0.000277 (roll) -0.007045 (pitch) -0.001437 (yaw) 
----------------------------------------------------- 
step 73, time 0.054750, maxvel 3.000000, total vol 359.697, vol(u>maxvel) 0, cell count 0
bounding box (containing cells with vel>maxvel): xmin inf inf inf, xmax -inf -inf -infm 
bounding box of vehicle: xmin -2.47489 -0.161927 0.0631, xmax 0 0.161927 0.5139m 
gts area: 4.03325 
yplus max: 4.10748, yplus min: 0.0414793 
position of yplus max: -2.47422 0.16113 0.106396 
yplus prom: 0.981542 
forces: 0.123424 0.001160 -0.029505 
Drag coefficient: 0.917690 
torque (ref. CG): -0.000277 (roll) -0.007085 (pitch) -0.001436 (yaw) 
----------------------------------------------------- 
step 74, time 0.055500, maxvel 3.000000, total vol 359.697, vol(u>maxvel) 0, cell count 0
bounding box (containing cells with vel>maxvel): xmin inf inf inf, xmax -inf -inf -infm 
bounding box of vehicle: xmin -2.47489 -0.161927 0.0631, xmax 0 0.161927 0.5139m 
gts area: 4.03325 
yplus max: 4.10669, yplus min: 0.0316134 
position of yplus max: -2.47422 0.16113 0.106396 
yplus prom: 0.981592 
forces: 0.123584 0.001159 -0.029567 
Drag coefficient: 0.918878 
torque (ref. CG): -0.000276 (roll) -0.007124 (pitch) -0.001434 (yaw) 
----------------------------------------------------- 
step 75, time 0.056250, maxvel 3.000000, total vol 359.697, vol(u>maxvel) 0, cell count 0
bounding box (containing cells with vel>maxvel): xmin inf inf inf, xmax -inf -inf -infm 
bounding box of vehicle: xmin -2.47489 -0.161927 0.0631, xmax 0 0.161927 0.5139m 
gts area: 4.03325 
yplus max: 4.10587, yplus min: 0.0540799 
position of yplus max: -2.47422 0.16113 0.106396 
yplus prom: 0.981625 
forces: 0.123738 0.001158 -0.029628 
Drag coefficient: 0.920025 
torque (ref. CG): -0.000276 (roll) -0.007163 (pitch) -0.001433 (yaw) 
----------------------------------------------------- 
step 76, time 0.057000, maxvel 3.000000, total vol 359.697, vol(u>maxvel) 0, cell count 0
bounding box (containing cells with vel>maxvel): xmin inf inf inf, xmax -inf -inf -infm 
bounding box of vehicle: xmin -2.47489 -0.161927 0.0631, xmax 0 0.161927 0.5139m 
gts area: 4.03325 
yplus max: 4.10503, yplus min: 0.0496341 
position of yplus max: -2.47422 0.16113 0.106396 
yplus prom: 0.981639 
forces: 0.123887 0.001157 -0.029689 
Drag coefficient: 0.921133 
torque (ref. CG): -0.000276 (roll) -0.007202 (pitch) -0.001431 (yaw) 
----------------------------------------------------- 
step 77, time 0.057750, maxvel 3.000000, total vol 359.697, vol(u>maxvel) 0, cell count 0
bounding box (containing cells with vel>maxvel): xmin inf inf inf, xmax -inf -inf -infm 
bounding box of vehicle: xmin -2.47489 -0.161927 0.0631, xmax 0 0.161927 0.5139m 
gts area: 4.03325 
yplus max: 4.10417, yplus min: 0.037122 
position of yplus max: -2.47422 0.16113 0.106396 
yplus prom: 0.981639 
forces: 0.124031 0.001155 -0.029748 
Drag coefficient: 0.922204 
torque (ref. CG): -0.000275 (roll) -0.007241 (pitch) -0.001430 (yaw) 
----------------------------------------------------- 
step 78, time 0.058500, maxvel 3.000000, total vol 359.697, vol(u>maxvel) 0, cell count 0
bounding box (containing cells with vel>maxvel): xmin inf inf inf, xmax -inf -inf -infm 
bounding box of vehicle: xmin -2.47489 -0.161927 0.0631, xmax 0 0.161927 0.5139m 
gts area: 4.03325 
yplus max: 4.10329, yplus min: 0.066908 
position of yplus max: -2.47422 0.16113 0.106396 
yplus prom: 0.981623 
forces: 0.124170 0.001154 -0.029807 
Drag coefficient: 0.923237 
torque (ref. CG): -0.000275 (roll) -0.007281 (pitch) -0.001428 (yaw) 
----------------------------------------------------- 
step 79, time 0.059250, maxvel 3.000000, total vol 359.697, vol(u>maxvel) 0, cell count 0
bounding box (containing cells with vel>maxvel): xmin inf inf inf, xmax -inf -inf -infm 
bounding box of vehicle: xmin -2.47489 -0.161927 0.0631, xmax 0 0.161927 0.5139m 
gts area: 4.03325 
yplus max: 4.10239, yplus min: 0.0763245 
position of yplus max: -2.47422 0.16113 0.106396 
yplus prom: 0.981589 
forces: 0.124304 0.001153 -0.029864 
Drag coefficient: 0.924233 
torque (ref. CG): -0.000275 (roll) -0.007320 (pitch) -0.001426 (yaw) 
----------------------------------------------------- 
step 80, time 0.060000, maxvel 3.000000, total vol 359.697, vol(u>maxvel) 0, cell count 0
bounding box (containing cells with vel>maxvel): xmin inf inf inf, xmax -inf -inf -infm 
bounding box of vehicle: xmin -2.47489 -0.161927 0.0631, xmax 0 0.161927 0.5139m 
gts area: 4.03325 
yplus max: 4.10148, yplus min: 0.0672153 
position of yplus max: -2.47422 0.16113 0.106396 
yplus prom: 0.981537 
forces: 0.124433 0.001152 -0.029921 
Drag coefficient: 0.925194 
torque (ref. CG): -0.000275 (roll) -0.007359 (pitch) -0.001425 (yaw) 
----------------------------------------------------- 
step 81, time 0.060750, maxvel 3.000000, total vol 359.697, vol(u>maxvel) 0, cell count 0
bounding box (containing cells with vel>maxvel): xmin inf inf inf, xmax -inf -inf -infm 
bounding box of vehicle: xmin -2.47489 -0.161927 0.0631, xmax 0 0.161927 0.5139m 
gts area: 4.03325 
yplus max: 4.10056, yplus min: 0.0632063 
position of yplus max: -2.47422 0.16113 0.106396 
yplus prom: 0.981466 
forces: 0.124558 0.001151 -0.029976 
Drag coefficient: 0.926122 
torque (ref. CG): -0.000274 (roll) -0.007398 (pitch) -0.001424 (yaw) 
----------------------------------------------------- 
step 82, time 0.061500, maxvel 3.000000, total vol 359.697, vol(u>maxvel) 0, cell count 0
bounding box (containing cells with vel>maxvel): xmin inf inf inf, xmax -inf -inf -infm 
bounding box of vehicle: xmin -2.47489 -0.161927 0.0631, xmax 0 0.161927 0.5139m 
gts area: 4.03325 
yplus max: 4.09962, yplus min: 0.0665369 
position of yplus max: -2.47422 0.16113 0.106396 
yplus prom: 0.981379 
forces: 0.124678 0.001150 -0.030031 
Drag coefficient: 0.927017 
torque (ref. CG): -0.000274 (roll) -0.007437 (pitch) -0.001423 (yaw) 
----------------------------------------------------- 
step 83, time 0.062250, maxvel 3.000000, total vol 359.697, vol(u>maxvel) 0, cell count 0
bounding box (containing cells with vel>maxvel): xmin inf inf inf, xmax -inf -inf -infm 
bounding box of vehicle: xmin -2.47489 -0.161927 0.0631, xmax 0 0.161927 0.5139m 
gts area: 4.03325 
yplus max: 4.09867, yplus min: 0.0748901 
position of yplus max: -2.47422 0.16113 0.106396 
yplus prom: 0.981276 
forces: 0.124794 0.001149 -0.030085 
Drag coefficient: 0.927878 
torque (ref. CG): -0.000274 (roll) -0.007476 (pitch) -0.001422 (yaw) 
----------------------------------------------------- 
step 84, time 0.063000, maxvel 3.000000, total vol 359.697, vol(u>maxvel) 0, cell count 0
bounding box (containing cells with vel>maxvel): xmin inf inf inf, xmax -inf -inf -infm 
bounding box of vehicle: xmin -2.47489 -0.161927 0.0631, xmax 0 0.161927 0.5139m 
gts area: 4.03325 
yplus max: 4.0977, yplus min: 0.0754302 
position of yplus max: -2.47422 0.16113 0.106396 
yplus prom: 0.981156 
forces: 0.124906 0.001149 -0.030138 
Drag coefficient: 0.928707 
torque (ref. CG): -0.000274 (roll) -0.007515 (pitch) -0.001421 (yaw) 
----------------------------------------------------- 
step 85, time 0.063750, maxvel 3.000000, total vol 359.697, vol(u>maxvel) 0, cell count 0
bounding box (containing cells with vel>maxvel): xmin inf inf inf, xmax -inf -inf -infm 
bounding box of vehicle: xmin -2.47489 -0.161927 0.0631, xmax 0 0.161927 0.5139m 
gts area: 4.03325 
yplus max: 4.09673, yplus min: 0.0770846 
position of yplus max: -2.47422 0.16113 0.106396 
yplus prom: 0.98102 
forces: 0.125013 0.001148 -0.030190 
Drag coefficient: 0.929503 
torque (ref. CG): -0.000274 (roll) -0.007554 (pitch) -0.001420 (yaw) 
----------------------------------------------------- 
step 86, time 0.064500, maxvel 3.000000, total vol 359.697, vol(u>maxvel) 0, cell count 0
bounding box (containing cells with vel>maxvel): xmin inf inf inf, xmax -inf -inf -infm 
bounding box of vehicle: xmin -2.47489 -0.161927 0.0631, xmax 0 0.161927 0.5139m 
gts area: 4.03325 
yplus max: 4.09575, yplus min: 0.0810265 
position of yplus max: -2.47422 0.16113 0.106396 
yplus prom: 0.980868 
forces: 0.125116 0.001147 -0.030241 
Drag coefficient: 0.930269 
torque (ref. CG): -0.000274 (roll) -0.007593 (pitch) -0.001420 (yaw) 
----------------------------------------------------- 
step 87, time 0.065250, maxvel 3.000000, total vol 359.697, vol(u>maxvel) 0, cell count 0
bounding box (containing cells with vel>maxvel): xmin inf inf inf, xmax -inf -inf -infm 
bounding box of vehicle: xmin -2.47489 -0.161927 0.0631, xmax 0 0.161927 0.5139m 
gts area: 4.03325 
yplus max: 4.09476, yplus min: 0.0863346 
position of yplus max: -2.47422 0.16113 0.106396 
yplus prom: 0.9807 
forces: 0.125215 0.001147 -0.030292 
Drag coefficient: 0.931005 
torque (ref. CG): -0.000273 (roll) -0.007632 (pitch) -0.001419 (yaw) 
----------------------------------------------------- 
step 88, time 0.066000, maxvel 3.000000, total vol 359.697, vol(u>maxvel) 0, cell count 0
bounding box (containing cells with vel>maxvel): xmin inf inf inf, xmax -inf -inf -infm 
bounding box of vehicle: xmin -2.47489 -0.161927 0.0631, xmax 0 0.161927 0.5139m 
gts area: 4.03325 
yplus max: 4.09376, yplus min: 0.0922663 
position of yplus max: -2.47422 0.16113 0.106396 
yplus prom: 0.980518 
forces: 0.125310 0.001146 -0.030341 
Drag coefficient: 0.931711 
torque (ref. CG): -0.000273 (roll) -0.007671 (pitch) -0.001418 (yaw) 
----------------------------------------------------- 
step 89, time 0.066750, maxvel 3.000000, total vol 359.697, vol(u>maxvel) 0, cell count 0
bounding box (containing cells with vel>maxvel): xmin inf inf inf, xmax -inf -inf -infm 
bounding box of vehicle: xmin -2.47489 -0.161927 0.0631, xmax 0 0.161927 0.5139m 
gts area: 4.03325 
yplus max: 4.09275, yplus min: 0.0983759 
position of yplus max: -2.47422 0.16113 0.106396 
yplus prom: 0.980321 
forces: 0.125401 0.001145 -0.030390 
Drag coefficient: 0.932388 
torque (ref. CG): -0.000273 (roll) -0.007709 (pitch) -0.001417 (yaw) 
----------------------------------------------------- 
step 90, time 0.067500, maxvel 3.000000, total vol 359.697, vol(u>maxvel) 0, cell count 0
bounding box (containing cells with vel>maxvel): xmin inf inf inf, xmax -inf -inf -infm 
bounding box of vehicle: xmin -2.47489 -0.161927 0.0631, xmax 0 0.161927 0.5139m 
gts area: 4.03325 
yplus max: 4.09175, yplus min: 0.104431 
position of yplus max: -2.47422 0.16113 0.106396 
yplus prom: 0.980111 
forces: 0.125488 0.001144 -0.030438 
Drag coefficient: 0.933037 
torque (ref. CG): -0.000273 (roll) -0.007748 (pitch) -0.001416 (yaw) 
----------------------------------------------------- 
step 91, time 0.068250, maxvel 3.000000, total vol 359.697, vol(u>maxvel) 0, cell count 0
bounding box (containing cells with vel>maxvel): xmin inf inf inf, xmax -inf -inf -infm 
bounding box of vehicle: xmin -2.47489 -0.161927 0.0631, xmax 0 0.161927 0.5139m 
gts area: 4.03325 
yplus max: 4.09073, yplus min: 0.109772 
position of yplus max: -2.47422 0.16113 0.106396 
yplus prom: 0.979888 
forces: 0.125572 0.001143 -0.030485 
Drag coefficient: 0.933658 
torque (ref. CG): -0.000272 (roll) -0.007786 (pitch) -0.001414 (yaw) 
----------------------------------------------------- 
step 92, time 0.069000, maxvel 3.000000, total vol 359.697, vol(u>maxvel) 0, cell count 0
bounding box (containing cells with vel>maxvel): xmin inf inf inf, xmax -inf -inf -infm 
bounding box of vehicle: xmin -2.47489 -0.161927 0.0631, xmax 0 0.161927 0.5139m 
gts area: 4.03325 
yplus max: 4.08972, yplus min: 0.0764584 
position of yplus max: -2.47422 0.16113 0.106396 
yplus prom: 0.979652 
forces: 0.125652 0.001142 -0.030531 
Drag coefficient: 0.934253 
torque (ref. CG): -0.000272 (roll) -0.007824 (pitch) -0.001413 (yaw) 
----------------------------------------------------- 
step 93, time 0.069750, maxvel 3.000000, total vol 359.697, vol(u>maxvel) 0, cell count 0
bounding box (containing cells with vel>maxvel): xmin inf inf inf, xmax -inf -inf -infm 
bounding box of vehicle: xmin -2.47489 -0.161927 0.0631, xmax 0 0.161927 0.5139m 
gts area: 4.03325 
yplus max: 4.0887, yplus min: 0.0986876 
position of yplus max: -2.47422 0.16113 0.106396 
yplus prom: 0.979405 
forces: 0.125728 0.001141 -0.030576 
Drag coefficient: 0.934821 
torque (ref. CG): -0.000272 (roll) -0.007861 (pitch) -0.001412 (yaw) 
----------------------------------------------------- 
step 94, time 0.070500, maxvel 3.000000, total vol 359.697, vol(u>maxvel) 0, cell count 0
bounding box (containing cells with vel>maxvel): xmin inf inf inf, xmax -inf -inf -infm 
bounding box of vehicle: xmin -2.47489 -0.161927 0.0631, xmax 0 0.161927 0.5139m 
gts area: 4.03325 
yplus max: 4.08768, yplus min: 0.0800627 
position of yplus max: -2.47422 0.16113 0.106396 
yplus prom: 0.979146 
forces: 0.125801 0.001140 -0.030621 
Drag coefficient: 0.935364 
torque (ref. CG): -0.000272 (roll) -0.007899 (pitch) -0.001410 (yaw) 
----------------------------------------------------- 
step 95, time 0.071250, maxvel 3.000000, total vol 359.697, vol(u>maxvel) 0, cell count 0
bounding box (containing cells with vel>maxvel): xmin inf inf inf, xmax -inf -inf -infm 
bounding box of vehicle: xmin -2.47489 -0.161927 0.0631, xmax 0 0.161927 0.5139m 
gts area: 4.03325 
yplus max: 4.08666, yplus min: 0.0627895 
position of yplus max: -2.47422 0.16113 0.106396 
yplus prom: 0.978877 
forces: 0.125871 0.001139 -0.030664 
Drag coefficient: 0.935881 
torque (ref. CG): -0.000271 (roll) -0.007936 (pitch) -0.001409 (yaw) 
----------------------------------------------------- 
step 96, time 0.072000, maxvel 3.000000, total vol 359.697, vol(u>maxvel) 0, cell count 0
bounding box (containing cells with vel>maxvel): xmin inf inf inf, xmax -inf -inf -infm 
bounding box of vehicle: xmin -2.47489 -0.161927 0.0631, xmax 0 0.161927 0.5139m 
gts area: 4.03325 
yplus max: 4.08564, yplus min: 0.0644584 
position of yplus max: -2.47422 0.16113 0.106396 
yplus prom: 0.978598 
forces: 0.125936 0.001138 -0.030707 
Drag coefficient: 0.936371 
torque (ref. CG): -0.000271 (roll) -0.007974 (pitch) -0.001408 (yaw) 
----------------------------------------------------- 
step 97, time 0.072750, maxvel 3.000000, total vol 359.697, vol(u>maxvel) 0, cell count 0
bounding box (containing cells with vel>maxvel): xmin inf inf inf, xmax -inf -inf -infm 
bounding box of vehicle: xmin -2.47489 -0.161927 0.0631, xmax 0 0.161927 0.5139m 
gts area: 4.03325 
yplus max: 4.08462, yplus min: 0.0820439 
position of yplus max: -2.47422 0.16113 0.106396 
yplus prom: 0.978311 
forces: 0.126000 0.001136 -0.030749 
Drag coefficient: 0.936844 
torque (ref. CG): -0.000271 (roll) -0.008011 (pitch) -0.001406 (yaw) 
----------------------------------------------------- 
step 98, time 0.073500, maxvel 3.000000, total vol 359.697, vol(u>maxvel) 0, cell count 0
bounding box (containing cells with vel>maxvel): xmin inf inf inf, xmax -inf -inf -infm 
bounding box of vehicle: xmin -2.47489 -0.161927 0.0631, xmax 0 0.161927 0.5139m 
gts area: 4.03325 
yplus max: 4.08361, yplus min: 0.0996906 
position of yplus max: -2.47422 0.16113 0.106396 
yplus prom: 0.978013 
forces: 0.126061 0.001135 -0.030790 
Drag coefficient: 0.937297 
torque (ref. CG): -0.000271 (roll) -0.008047 (pitch) -0.001405 (yaw) 
----------------------------------------------------- 
step 99, time 0.074250, maxvel 3.000000, total vol 359.697, vol(u>maxvel) 0, cell count 0
bounding box (containing cells with vel>maxvel): xmin inf inf inf, xmax -inf -inf -infm 
bounding box of vehicle: xmin -2.47489 -0.161927 0.0631, xmax 0 0.161927 0.5139m 
gts area: 4.03325 
yplus max: 4.08259, yplus min: 0.115304 
position of yplus max: -2.47422 0.16113 0.106396 
yplus prom: 0.977706 
forces: 0.126117 0.001134 -0.030831 
Drag coefficient: 0.937717 
torque (ref. CG): -0.000270 (roll) -0.008084 (pitch) -0.001403 (yaw) 
----------------------------------------------------- 
step 100, time 0.075000, maxvel 3.000000, total vol 359.697, vol(u>maxvel) 0, cell count 0
bounding box (containing cells with vel>maxvel): xmin inf inf inf, xmax -inf -inf -infm 
bounding box of vehicle: xmin -2.47489 -0.161927 0.0631, xmax 0 0.161927 0.5139m 
gts area: 4.03325 
yplus max: 4.08158, yplus min: 0.129173 
position of yplus max: -2.47422 0.16113 0.106396 
yplus prom: 0.977389 
forces: 0.126175 0.001134 -0.030872 
Drag coefficient: 0.938143 
torque (ref. CG): -0.000270 (roll) -0.008121 (pitch) -0.001403 (yaw) 
----------------------------------------------------- 
step 101, time 0.075750, maxvel 3.000000, total vol 359.697, vol(u>maxvel) 0, cell count 0
bounding box (containing cells with vel>maxvel): xmin inf inf inf, xmax -inf -inf -infm 
bounding box of vehicle: xmin -2.47489 -0.161927 0.0631, xmax 0 0.161927 0.5139m 
gts area: 4.03325 
yplus max: 4.08058, yplus min: 0.127562 
position of yplus max: -2.47422 0.16113 0.106396 
yplus prom: 0.977063 
forces: 0.126224 0.001132 -0.030911 
Drag coefficient: 0.938506 
torque (ref. CG): -0.000270 (roll) -0.008157 (pitch) -0.001401 (yaw) 
----------------------------------------------------- 
step 102, time 0.076500, maxvel 3.000000, total vol 359.697, vol(u>maxvel) 0, cell count 0
bounding box (containing cells with vel>maxvel): xmin inf inf inf, xmax -inf -inf -infm 
bounding box of vehicle: xmin -2.47489 -0.161927 0.0631, xmax 0 0.161927 0.5139m 
gts area: 4.03325 
yplus max: 4.07958, yplus min: 0.0960549 
position of yplus max: -2.47422 0.16113 0.106396 
yplus prom: 0.976729 
forces: 0.126273 0.001131 -0.030949 
Drag coefficient: 0.938871 
torque (ref. CG): -0.000270 (roll) -0.008193 (pitch) -0.001400 (yaw) 
----------------------------------------------------- 
step 103, time 0.077250, maxvel 3.000000, total vol 359.697, vol(u>maxvel) 0, cell count 0
bounding box (containing cells with vel>maxvel): xmin inf inf inf, xmax -inf -inf -infm 
bounding box of vehicle: xmin -2.47489 -0.161927 0.0631, xmax 0 0.161927 0.5139m 
gts area: 4.03325 
yplus max: 4.07859, yplus min: 0.0913585 
position of yplus max: -2.47422 0.16113 0.106396 
yplus prom: 0.976389 
forces: 0.126319 0.001130 -0.030987 
Drag coefficient: 0.939217 
torque (ref. CG): -0.000270 (roll) -0.008228 (pitch) -0.001399 (yaw) 
----------------------------------------------------- 
step 104, time 0.078000, maxvel 3.000000, total vol 359.697, vol(u>maxvel) 0, cell count 0
bounding box (containing cells with vel>maxvel): xmin inf inf inf, xmax -inf -inf -infm 
bounding box of vehicle: xmin -2.47489 -0.161927 0.0631, xmax 0 0.161927 0.5139m 
gts area: 4.03325 
yplus max: 4.0776, yplus min: 0.110539 
position of yplus max: -2.47422 0.16113 0.106396 
yplus prom: 0.976043 
forces: 0.126363 0.001130 -0.031024 
Drag coefficient: 0.939543 
torque (ref. CG): -0.000269 (roll) -0.008264 (pitch) -0.001398 (yaw) 
----------------------------------------------------- 
step 105, time 0.078750, maxvel 3.000000, total vol 359.697, vol(u>maxvel) 0, cell count 0
bounding box (containing cells with vel>maxvel): xmin inf inf inf, xmax -inf -inf -infm 
bounding box of vehicle: xmin -2.47489 -0.161927 0.0631, xmax 0 0.161927 0.5139m 
gts area: 4.03325 
yplus max: 4.07662, yplus min: 0.131712 
position of yplus max: -2.47422 0.16113 0.106396 
yplus prom: 0.975691 
forces: 0.126404 0.001129 -0.031060 
Drag coefficient: 0.939850 
torque (ref. CG): -0.000269 (roll) -0.008299 (pitch) -0.001397 (yaw) 
----------------------------------------------------- 
step 106, time 0.079500, maxvel 3.000000, total vol 359.697, vol(u>maxvel) 0, cell count 0
bounding box (containing cells with vel>maxvel): xmin inf inf inf, xmax -inf -inf -infm 
bounding box of vehicle: xmin -2.47489 -0.161927 0.0631, xmax 0 0.161927 0.5139m 
gts area: 4.03325 
yplus max: 4.07565, yplus min: 0.106569 
position of yplus max: -2.47422 0.16113 0.106396 
yplus prom: 0.975333 
forces: 0.126443 0.001128 -0.031096 
Drag coefficient: 0.940137 
torque (ref. CG): -0.000269 (roll) -0.008335 (pitch) -0.001396 (yaw) 
----------------------------------------------------- 
step 107, time 0.080250, maxvel 3.000000, total vol 359.697, vol(u>maxvel) 0, cell count 0
bounding box (containing cells with vel>maxvel): xmin inf inf inf, xmax -inf -inf -infm 
bounding box of vehicle: xmin -2.47489 -0.161927 0.0631, xmax 0 0.161927 0.5139m 
gts area: 4.03325 
yplus max: 4.07468, yplus min: 0.0800639 
position of yplus max: -2.47422 0.16113 0.106396 
yplus prom: 0.974968 
forces: 0.126479 0.001127 -0.031132 
Drag coefficient: 0.940406 
torque (ref. CG): -0.000269 (roll) -0.008370 (pitch) -0.001394 (yaw) 
----------------------------------------------------- 
step 108, time 0.081000, maxvel 3.000000, total vol 359.697, vol(u>maxvel) 0, cell count 0
bounding box (containing cells with vel>maxvel): xmin inf inf inf, xmax -inf -inf -infm 
bounding box of vehicle: xmin -2.47489 -0.161927 0.0631, xmax 0 0.161927 0.5139m 
gts area: 4.03325 
yplus max: 4.07372, yplus min: 0.0735025 
position of yplus max: -2.47422 0.16113 0.106396 
yplus prom: 0.974597 
forces: 0.126513 0.001126 -0.031166 
Drag coefficient: 0.940658 
torque (ref. CG): -0.000268 (roll) -0.008405 (pitch) -0.001393 (yaw) 
----------------------------------------------------- 
step 109, time 0.081750, maxvel 3.000000, total vol 359.697, vol(u>maxvel) 0, cell count 0
bounding box (containing cells with vel>maxvel): xmin inf inf inf, xmax -inf -inf -infm 
bounding box of vehicle: xmin -2.47489 -0.161927 0.0631, xmax 0 0.161927 0.5139m 
gts area: 4.03325 
yplus max: 4.07277, yplus min: 0.123492 
position of yplus max: -2.47422 0.16113 0.106396 
yplus prom: 0.974222 
forces: 0.126544 0.001125 -0.031201 
Drag coefficient: 0.940891 
torque (ref. CG): -0.000268 (roll) -0.008439 (pitch) -0.001392 (yaw) 
----------------------------------------------------- 
step 110, time 0.082500, maxvel 3.000000, total vol 359.697, vol(u>maxvel) 0, cell count 0
bounding box (containing cells with vel>maxvel): xmin inf inf inf, xmax -inf -inf -infm 
bounding box of vehicle: xmin -2.47489 -0.161927 0.0631, xmax 0 0.161927 0.5139m 
gts area: 4.03325 
yplus max: 4.07183, yplus min: 0.0946457 
position of yplus max: -2.47422 0.16113 0.106396 
yplus prom: 0.97384 
forces: 0.126573 0.001124 -0.031234 
Drag coefficient: 0.941107 
torque (ref. CG): -0.000268 (roll) -0.008474 (pitch) -0.001390 (yaw) 
----------------------------------------------------- 
step 111, time 0.083250, maxvel 3.000000, total vol 359.697, vol(u>maxvel) 0, cell count 0
bounding box (containing cells with vel>maxvel): xmin inf inf inf, xmax -inf -inf -infm 
bounding box of vehicle: xmin -2.47489 -0.161927 0.0631, xmax 0 0.161927 0.5139m 
gts area: 4.03325 
yplus max: 4.0709, yplus min: 0.0877338 
position of yplus max: -2.47422 0.16113 0.106396 
yplus prom: 0.973453 
forces: 0.126600 0.001123 -0.031267 
Drag coefficient: 0.941307 
torque (ref. CG): -0.000268 (roll) -0.008508 (pitch) -0.001389 (yaw) 
----------------------------------------------------- 
step 112, time 0.084000, maxvel 3.000000, total vol 359.697, vol(u>maxvel) 0, cell count 0
bounding box (containing cells with vel>maxvel): xmin inf inf inf, xmax -inf -inf -infm 
bounding box of vehicle: xmin -2.47489 -0.161927 0.0631, xmax 0 0.161927 0.5139m 
gts area: 4.03325 
yplus max: 4.06998, yplus min: 0.127139 
position of yplus max: -2.47422 0.16113 0.106396 
yplus prom: 0.973061 
forces: 0.126625 0.001121 -0.031299 
Drag coefficient: 0.941492 
torque (ref. CG): -0.000267 (roll) -0.008542 (pitch) -0.001388 (yaw) 
----------------------------------------------------- 
step 113, time 0.084750, maxvel 3.000000, total vol 359.697, vol(u>maxvel) 0, cell count 0
bounding box (containing cells with vel>maxvel): xmin inf inf inf, xmax -inf -inf -infm 
bounding box of vehicle: xmin -2.47489 -0.161927 0.0631, xmax 0 0.161927 0.5139m 
gts area: 4.03325 
yplus max: 4.06907, yplus min: 0.128193 
position of yplus max: -2.47422 0.16113 0.106396 
yplus prom: 0.972662 
forces: 0.126648 0.001121 -0.031331 
Drag coefficient: 0.941662 
torque (ref. CG): -0.000267 (roll) -0.008577 (pitch) -0.001387 (yaw) 
----------------------------------------------------- 
step 114, time 0.085500, maxvel 3.000000, total vol 359.697, vol(u>maxvel) 0, cell count 0
bounding box (containing cells with vel>maxvel): xmin inf inf inf, xmax -inf -inf -infm 
bounding box of vehicle: xmin -2.47489 -0.161927 0.0631, xmax 0 0.161927 0.5139m 
gts area: 4.03325 
yplus max: 4.06816, yplus min: 0.124264 
position of yplus max: -2.47422 0.16113 0.106396 
yplus prom: 0.972259 
forces: 0.126669 0.001120 -0.031363 
Drag coefficient: 0.941818 
torque (ref. CG): -0.000267 (roll) -0.008610 (pitch) -0.001385 (yaw) 
----------------------------------------------------- 
step 115, time 0.086250, maxvel 3.000000, total vol 359.697, vol(u>maxvel) 0, cell count 0
bounding box (containing cells with vel>maxvel): xmin inf inf inf, xmax -inf -inf -infm 
bounding box of vehicle: xmin -2.47489 -0.161927 0.0631, xmax 0 0.161927 0.5139m 
gts area: 4.03325 
yplus max: 4.06727, yplus min: 0.116609 
position of yplus max: -2.47422 0.16113 0.106396 
yplus prom: 0.97185 
forces: 0.126688 0.001119 -0.031394 
Drag coefficient: 0.941962 
torque (ref. CG): -0.000267 (roll) -0.008644 (pitch) -0.001384 (yaw) 
----------------------------------------------------- 
step 116, time 0.087000, maxvel 3.000000, total vol 359.697, vol(u>maxvel) 0, cell count 0
bounding box (containing cells with vel>maxvel): xmin inf inf inf, xmax -inf -inf -infm 
bounding box of vehicle: xmin -2.47489 -0.161927 0.0631, xmax 0 0.161927 0.5139m 
gts area: 4.03325 
yplus max: 4.06639, yplus min: 0.109576 
position of yplus max: -2.47422 0.16113 0.106396 
yplus prom: 0.971437 
forces: 0.126706 0.001118 -0.031424 
Drag coefficient: 0.942092 
torque (ref. CG): -0.000267 (roll) -0.008678 (pitch) -0.001383 (yaw) 
----------------------------------------------------- 
step 117, time 0.087750, maxvel 3.000000, total vol 359.697, vol(u>maxvel) 0, cell count 0
bounding box (containing cells with vel>maxvel): xmin inf inf inf, xmax -inf -inf -infm 
bounding box of vehicle: xmin -2.47489 -0.161927 0.0631, xmax 0 0.161927 0.5139m 
gts area: 4.03325 
yplus max: 4.06552, yplus min: 0.103736 
position of yplus max: -2.47422 0.16113 0.106396 
yplus prom: 0.971018 
forces: 0.126722 0.001117 -0.031455 
Drag coefficient: 0.942210 
torque (ref. CG): -0.000266 (roll) -0.008711 (pitch) -0.001382 (yaw) 
----------------------------------------------------- 
step 118, time 0.088500, maxvel 3.000000, total vol 359.697, vol(u>maxvel) 0, cell count 0
bounding box (containing cells with vel>maxvel): xmin inf inf inf, xmax -inf -inf -infm 
bounding box of vehicle: xmin -2.47489 -0.161927 0.0631, xmax 0 0.161927 0.5139m 
gts area: 4.03325 
yplus max: 4.06466, yplus min: 0.0998409 
position of yplus max: -2.47422 0.16113 0.106396 
yplus prom: 0.970595 
forces: 0.126736 0.001116 -0.031484 
Drag coefficient: 0.942314 
torque (ref. CG): -0.000266 (roll) -0.008745 (pitch) -0.001381 (yaw) 
----------------------------------------------------- 
step 119, time 0.089250, maxvel 3.000000, total vol 359.697, vol(u>maxvel) 0, cell count 0
bounding box (containing cells with vel>maxvel): xmin inf inf inf, xmax -inf -inf -infm 
bounding box of vehicle: xmin -2.47489 -0.161927 0.0631, xmax 0 0.161927 0.5139m 
gts area: 4.03325 
yplus max: 4.06381, yplus min: 0.0985795 
position of yplus max: -2.47422 0.16113 0.106396 
yplus prom: 0.970167 
forces: 0.126748 0.001115 -0.031514 
Drag coefficient: 0.942404 
torque (ref. CG): -0.000266 (roll) -0.008778 (pitch) -0.001380 (yaw) 
----------------------------------------------------- 
step 120, time 0.090000, maxvel 3.000000, total vol 359.697, vol(u>maxvel) 0, cell count 0
bounding box (containing cells with vel>maxvel): xmin inf inf inf, xmax -inf -inf -infm 
bounding box of vehicle: xmin -2.47489 -0.161927 0.0631, xmax 0 0.161927 0.5139m 
gts area: 4.03325 
yplus max: 4.06297, yplus min: 0.0965285 
position of yplus max: -2.47422 0.16113 0.106396 
yplus prom: 0.969734 
forces: 0.126758 0.001114 -0.031542 
Drag coefficient: 0.942481 
torque (ref. CG): -0.000266 (roll) -0.008811 (pitch) -0.001379 (yaw) 
----------------------------------------------------- 
step 121, time 0.090750, maxvel 3.000000, total vol 359.697, vol(u>maxvel) 0, cell count 0
bounding box (containing cells with vel>maxvel): xmin inf inf inf, xmax -inf -inf -infm 
bounding box of vehicle: xmin -2.47489 -0.161927 0.0631, xmax 0 0.161927 0.5139m 
gts area: 4.03325 
yplus max: 4.06215, yplus min: 0.0743986 
position of yplus max: -2.47422 0.16113 0.106396 
yplus prom: 0.969298 
forces: 0.126767 0.001113 -0.031571 
Drag coefficient: 0.942546 
torque (ref. CG): -0.000265 (roll) -0.008844 (pitch) -0.001377 (yaw) 
----------------------------------------------------- 
step 122, time 0.091500, maxvel 3.000000, total vol 359.697, vol(u>maxvel) 0, cell count 0
bounding box (containing cells with vel>maxvel): xmin inf inf inf, xmax -inf -inf -infm 
bounding box of vehicle: xmin -2.47489 -0.161927 0.0631, xmax 0 0.161927 0.5139m 
gts area: 4.03325 
yplus max: 4.06134, yplus min: 0.108682 
position of yplus max: -2.47422 0.16113 0.106396 
yplus prom: 0.968858 
forces: 0.126774 0.001112 -0.031599 
Drag coefficient: 0.942598 
torque (ref. CG): -0.000265 (roll) -0.008877 (pitch) -0.001376 (yaw) 
----------------------------------------------------- 
step 123, time 0.092250, maxvel 3.000000, total vol 359.697, vol(u>maxvel) 0, cell count 0
bounding box (containing cells with vel>maxvel): xmin inf inf inf, xmax -inf -inf -infm 
bounding box of vehicle: xmin -2.47489 -0.161927 0.0631, xmax 0 0.161927 0.5139m 
gts area: 4.03325 
yplus max: 4.06054, yplus min: 0.0870532 
position of yplus max: -2.47422 0.16113 0.106396 
yplus prom: 0.968415 
forces: 0.126779 0.001111 -0.031626 
Drag coefficient: 0.942637 
torque (ref. CG): -0.000265 (roll) -0.008910 (pitch) -0.001375 (yaw) 
----------------------------------------------------- 
step 124, time 0.093000, maxvel 3.000000, total vol 359.697, vol(u>maxvel) 0, cell count 0
bounding box (containing cells with vel>maxvel): xmin inf inf inf, xmax -inf -inf -infm 
bounding box of vehicle: xmin -2.47489 -0.161927 0.0631, xmax 0 0.161927 0.5139m 
gts area: 4.03325 
yplus max: 4.05975, yplus min: 0.0986533 
position of yplus max: -2.47422 0.16113 0.106396 
yplus prom: 0.967971 
forces: 0.126783 0.001110 -0.031653 
Drag coefficient: 0.942665 
torque (ref. CG): -0.000265 (roll) -0.008943 (pitch) -0.001374 (yaw) 
----------------------------------------------------- 
step 125, time 0.093750, maxvel 3.000000, total vol 359.697, vol(u>maxvel) 0, cell count 0
bounding box (containing cells with vel>maxvel): xmin inf inf inf, xmax -inf -inf -infm 
bounding box of vehicle: xmin -2.47489 -0.161927 0.0631, xmax 0 0.161927 0.5139m 
gts area: 4.03325 
yplus max: 4.05898, yplus min: 0.127801 
position of yplus max: -2.47422 0.16113 0.106396 
yplus prom: 0.967524 
forces: 0.126785 0.001109 -0.031680 
Drag coefficient: 0.942680 
torque (ref. CG): -0.000264 (roll) -0.008975 (pitch) -0.001373 (yaw) 
----------------------------------------------------- 
step 126, time 0.094500, maxvel 3.000000, total vol 359.697, vol(u>maxvel) 0, cell count 0
bounding box (containing cells with vel>maxvel): xmin inf inf inf, xmax -inf -inf -infm 
bounding box of vehicle: xmin -2.47489 -0.161927 0.0631, xmax 0 0.161927 0.5139m 
gts area: 4.03325 
yplus max: 4.05822, yplus min: 0.112307 
position of yplus max: -2.47422 0.16113 0.106396 
yplus prom: 0.967076 
forces: 0.126786 0.001108 -0.031706 
Drag coefficient: 0.942685 
torque (ref. CG): -0.000264 (roll) -0.009007 (pitch) -0.001372 (yaw) 
----------------------------------------------------- 
step 127, time 0.095250, maxvel 3.000000, total vol 359.697, vol(u>maxvel) 0, cell count 0
bounding box (containing cells with vel>maxvel): xmin inf inf inf, xmax -inf -inf -infm 
bounding box of vehicle: xmin -2.47489 -0.161927 0.0631, xmax 0 0.161927 0.5139m 
gts area: 4.03325 
yplus max: 4.05748, yplus min: 0.0854919 
position of yplus max: -2.47422 0.16113 0.106396 
yplus prom: 0.966628 
forces: 0.126785 0.001107 -0.031732 
Drag coefficient: 0.942679 
torque (ref. CG): -0.000264 (roll) -0.009040 (pitch) -0.001370 (yaw) 
----------------------------------------------------- 
step 128, time 0.096000, maxvel 3.000000, total vol 359.697, vol(u>maxvel) 0, cell count 0
bounding box (containing cells with vel>maxvel): xmin inf inf inf, xmax -inf -inf -infm 
bounding box of vehicle: xmin -2.47489 -0.161927 0.0631, xmax 0 0.161927 0.5139m 
gts area: 4.03325 
yplus max: 4.05675, yplus min: 0.105059 
position of yplus max: -2.47422 0.16113 0.106396 
yplus prom: 0.966179 
forces: 0.126783 0.001106 -0.031757 
Drag coefficient: 0.942662 
torque (ref. CG): -0.000264 (roll) -0.009072 (pitch) -0.001369 (yaw) 
----------------------------------------------------- 
step 129, time 0.096750, maxvel 3.000000, total vol 359.697, vol(u>maxvel) 0, cell count 0
bounding box (containing cells with vel>maxvel): xmin inf inf inf, xmax -inf -inf -infm 
bounding box of vehicle: xmin -2.47489 -0.161927 0.0631, xmax 0 0.161927 0.5139m 
gts area: 4.03325 
yplus max: 4.05603, yplus min: 0.127353 
position of yplus max: -2.47422 0.16113 0.106396 
yplus prom: 0.96573 
forces: 0.126779 0.001106 -0.031783 
Drag coefficient: 0.942634 
torque (ref. CG): -0.000264 (roll) -0.009104 (pitch) -0.001368 (yaw) 
----------------------------------------------------- 
step 130, time 0.097500, maxvel 3.000000, total vol 359.697, vol(u>maxvel) 0, cell count 0
bounding box (containing cells with vel>maxvel): xmin inf inf inf, xmax -inf -inf -infm 
bounding box of vehicle: xmin -2.47489 -0.161927 0.0631, xmax 0 0.161927 0.5139m 
gts area: 4.03325 
yplus max: 4.05533, yplus min: 0.119015 
position of yplus max: -2.47422 0.16113 0.106396 
yplus prom: 0.965283 
forces: 0.126774 0.001105 -0.031807 
Drag coefficient: 0.942597 
torque (ref. CG): -0.000263 (roll) -0.009135 (pitch) -0.001367 (yaw) 
----------------------------------------------------- 
step 131, time 0.098250, maxvel 3.000000, total vol 359.697, vol(u>maxvel) 0, cell count 0
bounding box (containing cells with vel>maxvel): xmin inf inf inf, xmax -inf -inf -infm 
bounding box of vehicle: xmin -2.47489 -0.161927 0.0631, xmax 0 0.161927 0.5139m 
gts area: 4.03325 
yplus max: 4.05464, yplus min: 0.132421 
position of yplus max: -2.47422 0.16113 0.106396 
yplus prom: 0.964838 
forces: 0.126767 0.001104 -0.031831 
Drag coefficient: 0.942550 
torque (ref. CG): -0.000263 (roll) -0.009167 (pitch) -0.001366 (yaw) 
----------------------------------------------------- 
step 132, time 0.099000, maxvel 3.000000, total vol 359.697, vol(u>maxvel) 0, cell count 0
bounding box (containing cells with vel>maxvel): xmin inf inf inf, xmax -inf -inf -infm 
bounding box of vehicle: xmin -2.47489 -0.161927 0.0631, xmax 0 0.161927 0.5139m 
gts area: 4.03325 
yplus max: 4.05397, yplus min: 0.114243 
position of yplus max: -2.47422 0.16113 0.106396 
yplus prom: 0.964394 
forces: 0.126760 0.001103 -0.031855 
Drag coefficient: 0.942493 
torque (ref. CG): -0.000263 (roll) -0.009198 (pitch) -0.001364 (yaw) 
----------------------------------------------------- 
step 133, time 0.099750, maxvel 3.000000, total vol 359.697, vol(u>maxvel) 0, cell count 0
bounding box (containing cells with vel>maxvel): xmin inf inf inf, xmax -inf -inf -infm 
bounding box of vehicle: xmin -2.47489 -0.161927 0.0631, xmax 0 0.161927 0.5139m 
gts area: 4.03325 
yplus max: 4.05331, yplus min: 0.085417 
position of yplus max: -2.47422 0.16113 0.106396 
yplus prom: 0.96395 
forces: 0.126751 0.001102 -0.031879 
Drag coefficient: 0.942427 
torque (ref. CG): -0.000263 (roll) -0.009229 (pitch) -0.001363 (yaw) 
----------------------------------------------------- 
step 134, time 0.100500, maxvel 3.000000, total vol 359.697, vol(u>maxvel) 0, cell count 0
bounding box (containing cells with vel>maxvel): xmin inf inf inf, xmax -inf -inf -infm 
bounding box of vehicle: xmin -2.47489 -0.161927 0.0631, xmax 0 0.161927 0.5139m 
gts area: 4.03325 
yplus max: 4.05267, yplus min: 0.0258124 
position of yplus max: -2.47422 0.16113 0.106396 
yplus prom: 0.963508 
forces: 0.126741 0.001101 -0.031902 
Drag coefficient: 0.942353 
torque (ref. CG): -0.000262 (roll) -0.009260 (pitch) -0.001362 (yaw) 
----------------------------------------------------- 
step 135, time 0.101250, maxvel 3.000000, total vol 359.697, vol(u>maxvel) 0, cell count 0
bounding box (containing cells with vel>maxvel): xmin inf inf inf, xmax -inf -inf -infm 
bounding box of vehicle: xmin -2.47489 -0.161927 0.0631, xmax 0 0.161927 0.5139m 
gts area: 4.03325 
yplus max: 4.05204, yplus min: 0.086478 
position of yplus max: -2.47422 0.16113 0.106396 
yplus prom: 0.963068 
[...]
gts area: 4.03325 
yplus max: 4.07904, yplus min: 0.0840102 
position of yplus max: -2.47422 0.16113 0.106396 
yplus prom: 0.870388 
forces: 0.112546 0.001066 -0.032818 
Drag coefficient: 0.836812 
torque (ref. CG): -0.000254 (roll) -0.013778 (pitch) -0.001319 (yaw) 
----------------------------------------------------- 
step 425, time 0.318750, maxvel 3.000000, total vol 359.697, vol(u>maxvel) 0, cell count 0
bounding box (containing cells with vel>maxvel): xmin inf inf inf, xmax -inf -inf -infm 
bounding box of vehicle: xmin -2.47489 -0.161927 0.0631, xmax 0 0.161927 0.5139m 
gts area: 4.03325 
yplus max: 4.07836, yplus min: 0.0915578 
position of yplus max: -2.47422 0.16113 0.106396 
yplus prom: 0.870203 
forces: 0.112503 0.001066 -0.032812 
Drag coefficient: 0.836488 
torque (ref. CG): -0.000254 (roll) -0.013781 (pitch) -0.001319 (yaw) 
----------------------------------------------------- 
step 426, time 0.319500, maxvel 3.000000, total vol 359.697, vol(u>maxvel) 0, cell count 0
bounding box (containing cells with vel>maxvel): xmin inf inf inf, xmax -inf -inf -infm 
bounding box of vehicle: xmin -2.47489 -0.161927 0.0631, xmax 0 0.161927 0.5139m 
gts area: 4.03325 
yplus max: 4.07767, yplus min: 0.0688237 
position of yplus max: -2.47422 0.16113 0.106396 
yplus prom: 0.870018 
forces: 0.112454 0.001065 -0.032799 
Drag coefficient: 0.836126 
torque (ref. CG): -0.000254 (roll) -0.013776 (pitch) -0.001318 (yaw) 
----------------------------------------------------- 
step 427, time 0.320250, maxvel 3.000000, total vol 359.697, vol(u>maxvel) 0, cell count 0
bounding box (containing cells with vel>maxvel): xmin inf inf inf, xmax -inf -inf -infm 
bounding box of vehicle: xmin -2.47489 -0.161927 0.0631, xmax 0 0.161927 0.5139m 
gts area: 4.03325 
yplus max: 4.07699, yplus min: 0.0516587 
position of yplus max: -2.47422 0.16113 0.106396 
yplus prom: 0.869834 
forces: 0.112416 0.001067 -0.032802 
Drag coefficient: 0.835839 
torque (ref. CG): -0.000254 (roll) -0.013789 (pitch) -0.001320 (yaw) 
----------------------------------------------------- 
step 428, time 0.321000, maxvel 3.000000, total vol 359.697, vol(u>maxvel) 0, cell count 0
bounding box (containing cells with vel>maxvel): xmin inf inf inf, xmax -inf -inf -infm 
bounding box of vehicle: xmin -2.47489 -0.161927 0.0631, xmax 0 0.161927 0.5139m 
gts area: 4.03325 
yplus max: 4.0763, yplus min: 0.0733694 
position of yplus max: -2.47422 0.16113 0.106396 
yplus prom: 0.869651 
forces: 0.112372 0.001067 -0.032796 
Drag coefficient: 0.835518 
torque (ref. CG): -0.000254 (roll) -0.013793 (pitch) -0.001320 (yaw) 
----------------------------------------------------- 
step 429, time 0.321750, maxvel 3.000000, total vol 359.697, vol(u>maxvel) 0, cell count 0
bounding box (containing cells with vel>maxvel): xmin inf inf inf, xmax -inf -inf -infm 
bounding box of vehicle: xmin -2.47489 -0.161927 0.0631, xmax 0 0.161927 0.5139m 
gts area: 4.03325 
yplus max: 4.0756, yplus min: 0.0794439 
position of yplus max: -2.47422 0.16113 0.106396 
yplus prom: 0.869468 
forces: 0.112324 0.001065 -0.032783 
Drag coefficient: 0.835161 
torque (ref. CG): -0.000254 (roll) -0.013787 (pitch) -0.001318 (yaw) 
----------------------------------------------------- 
step 430, time 0.322500, maxvel 3.000000, total vol 359.697, vol(u>maxvel) 0, cell count 0
bounding box (containing cells with vel>maxvel): xmin inf inf inf, xmax -inf -inf -infm 
bounding box of vehicle: xmin -2.47489 -0.161927 0.0631, xmax 0 0.161927 0.5139m 
gts area: 4.03325 
yplus max: 4.07492, yplus min: 0.093384 
position of yplus max: -2.47422 0.16113 0.106396 
yplus prom: 0.869286 
forces: 0.112285 0.001067 -0.032786 
Drag coefficient: 0.834872 
torque (ref. CG): -0.000254 (roll) -0.013801 (pitch) -0.001321 (yaw) 
----------------------------------------------------- 
step 431, time 0.323250, maxvel 3.000000, total vol 359.697, vol(u>maxvel) 0, cell count 0
bounding box (containing cells with vel>maxvel): xmin inf inf inf, xmax -inf -inf -infm 
bounding box of vehicle: xmin -2.47489 -0.161927 0.0631, xmax 0 0.161927 0.5139m 
gts area: 4.03325 
yplus max: 4.07422, yplus min: 0.0977383 
position of yplus max: -2.47422 0.16113 0.106396 
yplus prom: 0.869104 
forces: 0.112242 0.001068 -0.032781 
Drag coefficient: 0.834551 
torque (ref. CG): -0.000255 (roll) -0.013804 (pitch) -0.001321 (yaw) 
----------------------------------------------------- 
step 432, time 0.324000, maxvel 3.000000, total vol 359.697, vol(u>maxvel) 0, cell count 0
bounding box (containing cells with vel>maxvel): xmin inf inf inf, xmax -inf -inf -infm 
bounding box of vehicle: xmin -2.47489 -0.161927 0.0631, xmax 0 0.161927 0.5139m 
gts area: 4.03325 
yplus max: 4.07351, yplus min: 0.0818579 
position of yplus max: -2.47422 0.16113 0.106396 
yplus prom: 0.868922 
forces: 0.112194 0.001066 -0.032767 
Drag coefficient: 0.834194 
torque (ref. CG): -0.000254 (roll) -0.013799 (pitch) -0.001319 (yaw) 
----------------------------------------------------- 
step 433, time 0.324750, maxvel 3.000000, total vol 359.697, vol(u>maxvel) 0, cell count 0
bounding box (containing cells with vel>maxvel): xmin inf inf inf, xmax -inf -inf -infm 
bounding box of vehicle: xmin -2.47489 -0.161927 0.0631, xmax 0 0.161927 0.5139m 
gts area: 4.03325 
yplus max: 4.07282, yplus min: 0.0524187 
position of yplus max: -2.47422 0.16113 0.106396 
yplus prom: 0.868741 
forces: 0.112156 0.001068 -0.032770 
Drag coefficient: 0.833910 
torque (ref. CG): -0.000255 (roll) -0.013812 (pitch) -0.001322 (yaw) 
----------------------------------------------------- 
step 434, time 0.325500, maxvel 3.000000, total vol 359.697, vol(u>maxvel) 0, cell count 0
bounding box (containing cells with vel>maxvel): xmin inf inf inf, xmax -inf -inf -infm 
bounding box of vehicle: xmin -2.47489 -0.161927 0.0631, xmax 0 0.161927 0.5139m 
gts area: 4.03325 
yplus max: 4.07212, yplus min: 0.0533709 
position of yplus max: -2.47422 0.16113 0.106396 
yplus prom: 0.868561 
forces: 0.112113 0.001068 -0.032764 
Drag coefficient: 0.833592 
torque (ref. CG): -0.000255 (roll) -0.013815 (pitch) -0.001322 (yaw) 
----------------------------------------------------- 
step 435, time 0.326250, maxvel 3.000000, total vol 359.697, vol(u>maxvel) 0, cell count 0
bounding box (containing cells with vel>maxvel): xmin inf inf inf, xmax -inf -inf -infm 
bounding box of vehicle: xmin -2.47489 -0.161927 0.0631, xmax 0 0.161927 0.5139m 
gts area: 4.03325 
yplus max: 4.0714, yplus min: 0.0829111 
position of yplus max: -2.47422 0.16113 0.106396 
yplus prom: 0.868381 
forces: 0.112066 0.001067 -0.032751 
Drag coefficient: 0.833239 
torque (ref. CG): -0.000254 (roll) -0.013809 (pitch) -0.001320 (yaw) 
----------------------------------------------------- 
step 436, time 0.327000, maxvel 3.000000, total vol 359.697, vol(u>maxvel) 0, cell count 0
bounding box (containing cells with vel>maxvel): xmin inf inf inf, xmax -inf -inf -infm 
bounding box of vehicle: xmin -2.47489 -0.161927 0.0631, xmax 0 0.161927 0.5139m 
gts area: 4.03325 
yplus max: 4.07071, yplus min: 0.0928229 
position of yplus max: -2.47422 0.16113 0.106396 
yplus prom: 0.868202 
forces: 0.112027 0.001069 -0.032754 
Drag coefficient: 0.832953 
torque (ref. CG): -0.000255 (roll) -0.013823 (pitch) -0.001323 (yaw) 
----------------------------------------------------- 
step 437, time 0.327750, maxvel 3.000000, total vol 359.697, vol(u>maxvel) 0, cell count 0
bounding box (containing cells with vel>maxvel): xmin inf inf inf, xmax -inf -inf -infm 
bounding box of vehicle: xmin -2.47489 -0.161927 0.0631, xmax 0 0.161927 0.5139m 
gts area: 4.03325 
yplus max: 4.06999, yplus min: 0.0918314 
position of yplus max: -2.47422 0.16113 0.106396 
yplus prom: 0.868023 
forces: 0.111985 0.001069 -0.032748 
Drag coefficient: 0.832636 
torque (ref. CG): -0.000255 (roll) -0.013826 (pitch) -0.001323 (yaw) 
----------------------------------------------------- 
step 438, time 0.328500, maxvel 3.000000, total vol 359.697, vol(u>maxvel) 0, cell count 0
bounding box (containing cells with vel>maxvel): xmin inf inf inf, xmax -inf -inf -infm 
bounding box of vehicle: xmin -2.47489 -0.161927 0.0631, xmax 0 0.161927 0.5139m 
gts area: 4.03325 
yplus max: 4.06927, yplus min: 0.0908365 
position of yplus max: -2.47422 0.16113 0.106396 
yplus prom: 0.867844 
forces: 0.111937 0.001068 -0.032735 
Drag coefficient: 0.832283 
torque (ref. CG): -0.000255 (roll) -0.013820 (pitch) -0.001321 (yaw) 
----------------------------------------------------- 
step 439, time 0.329250, maxvel 3.000000, total vol 359.697, vol(u>maxvel) 0, cell count 0
bounding box (containing cells with vel>maxvel): xmin inf inf inf, xmax -inf -inf -infm 
bounding box of vehicle: xmin -2.47489 -0.161927 0.0631, xmax 0 0.161927 0.5139m 
gts area: 4.03325 
yplus max: 4.06858, yplus min: 0.0735002 
position of yplus max: -2.47422 0.16113 0.106396 
yplus prom: 0.867666 
forces: 0.111899 0.001070 -0.032738 
Drag coefficient: 0.832002 
torque (ref. CG): -0.000255 (roll) -0.013833 (pitch) -0.001324 (yaw) 
----------------------------------------------------- 
step 440, time 0.330000, maxvel 3.000000, total vol 359.697, vol(u>maxvel) 0, cell count 0
bounding box (containing cells with vel>maxvel): xmin inf inf inf, xmax -inf -inf -infm 
bounding box of vehicle: xmin -2.47489 -0.161927 0.0631, xmax 0 0.161927 0.5139m 
gts area: 4.03325 
yplus max: 4.06786, yplus min: 0.0416038 
position of yplus max: -2.47422 0.16113 0.106396 
yplus prom: 0.867488 
forces: 0.111857 0.001070 -0.032732 
Drag coefficient: 0.831688 
torque (ref. CG): -0.000255 (roll) -0.013836 (pitch) -0.001324 (yaw) 
----------------------------------------------------- 
step 441, time 0.330750, maxvel 3.000000, total vol 359.697, vol(u>maxvel) 0, cell count 0
bounding box (containing cells with vel>maxvel): xmin inf inf inf, xmax -inf -inf -infm 
bounding box of vehicle: xmin -2.47489 -0.161927 0.0631, xmax 0 0.161927 0.5139m 
gts area: 4.03325 
yplus max: 4.06713, yplus min: 0.0591683 
position of yplus max: -2.47422 0.16113 0.106396 
yplus prom: 0.867311 
forces: 0.111810 0.001068 -0.032718 
Drag coefficient: 0.831339 
torque (ref. CG): -0.000255 (roll) -0.013830 (pitch) -0.001322 (yaw) 
----------------------------------------------------- 
step 442, time 0.331500, maxvel 3.000000, total vol 359.697, vol(u>maxvel) 0, cell count 0
bounding box (containing cells with vel>maxvel): xmin inf inf inf, xmax -inf -inf -infm 
bounding box of vehicle: xmin -2.47489 -0.161927 0.0631, xmax 0 0.161927 0.5139m 
gts area: 4.03325 
yplus max: 4.06643, yplus min: 0.0868112 
position of yplus max: -2.47422 0.16113 0.106396 
yplus prom: 0.867135 
forces: 0.111772 0.001071 -0.032722 
Drag coefficient: 0.831056 
torque (ref. CG): -0.000255 (roll) -0.013843 (pitch) -0.001325 (yaw) 
----------------------------------------------------- 
step 443, time 0.332250, maxvel 3.000000, total vol 359.697, vol(u>maxvel) 0, cell count 0
bounding box (containing cells with vel>maxvel): xmin inf inf inf, xmax -inf -inf -infm 
bounding box of vehicle: xmin -2.47489 -0.161927 0.0631, xmax 0 0.161927 0.5139m 
gts area: 4.03325 
yplus max: 4.06571, yplus min: 0.0857963 
position of yplus max: -2.47422 0.16113 0.106396 
yplus prom: 0.866959 
forces: 0.111730 0.001071 -0.032716 
Drag coefficient: 0.830742 
torque (ref. CG): -0.000255 (roll) -0.013846 (pitch) -0.001325 (yaw) 
----------------------------------------------------- 
step 444, time 0.333000, maxvel 3.000000, total vol 359.697, vol(u>maxvel) 0, cell count 0
bounding box (containing cells with vel>maxvel): xmin inf inf inf, xmax -inf -inf -infm 
bounding box of vehicle: xmin -2.47489 -0.161927 0.0631, xmax 0 0.161927 0.5139m 
gts area: 4.03325 
yplus max: 4.06498, yplus min: 0.0736324 
position of yplus max: -2.47422 0.16113 0.106396 
yplus prom: 0.866783 
forces: 0.111683 0.001070 -0.032702 
Drag coefficient: 0.830395 
torque (ref. CG): -0.000255 (roll) -0.013840 (pitch) -0.001323 (yaw) 
----------------------------------------------------- 
step 445, time 0.333750, maxvel 3.000000, total vol 359.697, vol(u>maxvel) 0, cell count 0
bounding box (containing cells with vel>maxvel): xmin inf inf inf, xmax -inf -inf -infm 
bounding box of vehicle: xmin -2.47489 -0.161927 0.0631, xmax 0 0.161927 0.5139m 
gts area: 4.03325 
yplus max: 4.06427, yplus min: 0.0589665 
position of yplus max: -2.47422 0.16113 0.106396 
yplus prom: 0.866608 
forces: 0.111646 0.001071 -0.032705 
Drag coefficient: 0.830116 
torque (ref. CG): -0.000255 (roll) -0.013853 (pitch) -0.001326 (yaw) 
----------------------------------------------------- 
step 446, time 0.334500, maxvel 3.000000, total vol 359.697, vol(u>maxvel) 0, cell count 0
bounding box (containing cells with vel>maxvel): xmin inf inf inf, xmax -inf -inf -infm 
bounding box of vehicle: xmin -2.47489 -0.161927 0.0631, xmax 0 0.161927 0.5139m 
gts area: 4.03325 
yplus max: 4.06354, yplus min: 0.0513843 
position of yplus max: -2.47422 0.16113 0.106396 
yplus prom: 0.866434 
forces: 0.111604 0.001072 -0.032699 
Drag coefficient: 0.829805 
torque (ref. CG): -0.000255 (roll) -0.013855 (pitch) -0.001326 (yaw) 
----------------------------------------------------- 
step 447, time 0.335250, maxvel 3.000000, total vol 359.697, vol(u>maxvel) 0, cell count 0
bounding box (containing cells with vel>maxvel): xmin inf inf inf, xmax -inf -inf -infm 
bounding box of vehicle: xmin -2.47489 -0.161927 0.0631, xmax 0 0.161927 0.5139m 
gts area: 4.03325 
yplus max: 4.06281, yplus min: 0.0612065 
position of yplus max: -2.47422 0.16113 0.106396 
yplus prom: 0.86626 
forces: 0.111558 0.001070 -0.032685 
Drag coefficient: 0.829462 
torque (ref. CG): -0.000255 (roll) -0.013849 (pitch) -0.001324 (yaw) 
----------------------------------------------------- 
step 448, time 0.336000, maxvel 3.000000, total vol 359.697, vol(u>maxvel) 0, cell count 0
bounding box (containing cells with vel>maxvel): xmin inf inf inf, xmax -inf -inf -infm 
bounding box of vehicle: xmin -2.47489 -0.161927 0.0631, xmax 0 0.161927 0.5139m 
gts area: 4.03325 
yplus max: 4.0621, yplus min: 0.0756202 
position of yplus max: -2.47422 0.16113 0.106396 
yplus prom: 0.866087 
forces: 0.111520 0.001072 -0.032688 
Drag coefficient: 0.829181 
torque (ref. CG): -0.000256 (roll) -0.013862 (pitch) -0.001327 (yaw) 
----------------------------------------------------- 
step 449, time 0.336750, maxvel 3.000000, total vol 359.697, vol(u>maxvel) 0, cell count 0
bounding box (containing cells with vel>maxvel): xmin inf inf inf, xmax -inf -inf -infm 
bounding box of vehicle: xmin -2.47489 -0.161927 0.0631, xmax 0 0.161927 0.5139m 
gts area: 4.03325 
yplus max: 4.06137, yplus min: 0.0796008 
position of yplus max: -2.47422 0.16113 0.106396 
yplus prom: 0.865915 
forces: 0.111478 0.001072 -0.032682 
Drag coefficient: 0.828871 
torque (ref. CG): -0.000256 (roll) -0.013865 (pitch) -0.001327 (yaw) 
----------------------------------------------------- 
step 450, time 0.337500, maxvel 3.000000, total vol 359.697, vol(u>maxvel) 0, cell count 0
bounding box (containing cells with vel>maxvel): xmin inf inf inf, xmax -inf -inf -infm 
bounding box of vehicle: xmin -2.47489 -0.161927 0.0631, xmax 0 0.161927 0.5139m 
gts area: 4.03325 
yplus max: 4.06063, yplus min: 0.0785517 
position of yplus max: -2.47422 0.16113 0.106396 
yplus prom: 0.865743 
forces: 0.111432 0.001071 -0.032669 
Drag coefficient: 0.828528 
torque (ref. CG): -0.000255 (roll) -0.013859 (pitch) -0.001325 (yaw) 
----------------------------------------------------- 
step 451, time 0.338250, maxvel 3.000000, total vol 359.697, vol(u>maxvel) 0, cell count 0
bounding box (containing cells with vel>maxvel): xmin inf inf inf, xmax -inf -inf -infm 
bounding box of vehicle: xmin -2.47489 -0.161927 0.0631, xmax 0 0.161927 0.5139m 
gts area: 4.03325 
yplus max: 4.05992, yplus min: 0.0774931 
position of yplus max: -2.47422 0.16113 0.106396 
yplus prom: 0.865571 
forces: 0.111395 0.001073 -0.032672 
Drag coefficient: 0.828252 
torque (ref. CG): -0.000256 (roll) -0.013871 (pitch) -0.001327 (yaw) 
----------------------------------------------------- 
step 452, time 0.339000, maxvel 3.000000, total vol 359.697, vol(u>maxvel) 0, cell count 0
bounding box (containing cells with vel>maxvel): xmin inf inf inf, xmax -inf -inf -infm 
bounding box of vehicle: xmin -2.47489 -0.161927 0.0631, xmax 0 0.161927 0.5139m 
gts area: 4.03325 
yplus max: 4.05919, yplus min: 0.0764329 
position of yplus max: -2.47422 0.16113 0.106396 
yplus prom: 0.8654 
forces: 0.111354 0.001073 -0.032666 
Drag coefficient: 0.827945 
torque (ref. CG): -0.000256 (roll) -0.013874 (pitch) -0.001328 (yaw) 
----------------------------------------------------- 
step 453, time 0.339750, maxvel 3.000000, total vol 359.697, vol(u>maxvel) 0, cell count 0
bounding box (containing cells with vel>maxvel): xmin inf inf inf, xmax -inf -inf -infm 
bounding box of vehicle: xmin -2.47489 -0.161927 0.0631, xmax 0 0.161927 0.5139m 
gts area: 4.03325 
yplus max: 4.05844, yplus min: 0.0753671 
position of yplus max: -2.47422 0.16113 0.106396 
yplus prom: 0.865229 
forces: 0.111308 0.001071 -0.032652 
Drag coefficient: 0.827606 
torque (ref. CG): -0.000255 (roll) -0.013867 (pitch) -0.001326 (yaw) 
----------------------------------------------------- 
step 454, time 0.340500, maxvel 3.000000, total vol 359.697, vol(u>maxvel) 0, cell count 0
bounding box (containing cells with vel>maxvel): xmin inf inf inf, xmax -inf -inf -infm 
bounding box of vehicle: xmin -2.47489 -0.161927 0.0631, xmax 0 0.161927 0.5139m 
gts area: 4.03325 
yplus max: 4.05773, yplus min: 0.0742908 
position of yplus max: -2.47422 0.16113 0.106396 
yplus prom: 0.865058 
forces: 0.111271 0.001073 -0.032655 
Drag coefficient: 0.827327 
torque (ref. CG): -0.000256 (roll) -0.013880 (pitch) -0.001328 (yaw) 
----------------------------------------------------- 
step 455, time 0.341250, maxvel 3.000000, total vol 359.697, vol(u>maxvel) 0, cell count 0
bounding box (containing cells with vel>maxvel): xmin inf inf inf, xmax -inf -inf -infm 
bounding box of vehicle: xmin -2.47489 -0.161927 0.0631, xmax 0 0.161927 0.5139m 
gts area: 4.03325 
yplus max: 4.05699, yplus min: 0.0732129 
position of yplus max: -2.47422 0.16113 0.106396 
yplus prom: 0.864888 
forces: 0.111230 0.001074 -0.032649 
Drag coefficient: 0.827021 
torque (ref. CG): -0.000256 (roll) -0.013882 (pitch) -0.001329 (yaw) 
----------------------------------------------------- 
step 456, time 0.342000, maxvel 3.000000, total vol 359.697, vol(u>maxvel) 0, cell count 0
bounding box (containing cells with vel>maxvel): xmin inf inf inf, xmax -inf -inf -infm 
bounding box of vehicle: xmin -2.47489 -0.161927 0.0631, xmax 0 0.161927 0.5139m 
gts area: 4.03325 
yplus max: 4.05625, yplus min: 0.0721289 
position of yplus max: -2.47422 0.16113 0.106396 
yplus prom: 0.864719 
forces: 0.111184 0.001072 -0.032635 
Drag coefficient: 0.826683 
torque (ref. CG): -0.000256 (roll) -0.013876 (pitch) -0.001327 (yaw) 
----------------------------------------------------- 
step 457, time 0.342750, maxvel 3.000000, total vol 359.697, vol(u>maxvel) 0, cell count 0
bounding box (containing cells with vel>maxvel): xmin inf inf inf, xmax -inf -inf -infm 
bounding box of vehicle: xmin -2.47489 -0.161927 0.0631, xmax 0 0.161927 0.5139m 
gts area: 4.03325 
yplus max: 4.05553, yplus min: 0.0710342 
position of yplus max: -2.47422 0.16113 0.106396 
yplus prom: 0.86455 
forces: 0.111147 0.001074 -0.032638 
Drag coefficient: 0.826409 
torque (ref. CG): -0.000256 (roll) -0.013889 (pitch) -0.001329 (yaw) 
----------------------------------------------------- 
srun: Job step aborted: Waiting up to 32 seconds for job step to finish.
srun: got SIGCONT
slurmstepd: error: *** STEP 140696.0 ON compute-0-17 CANCELLED AT 2022-09-09T16:17:58 ***
slurmstepd: error: *** JOB 140696 ON compute-0-17 CANCELLED AT 2022-09-09T16:17:58 ***
srun: forcing job termination
make: *** [run] Terminado
