Start run at mié ago 24 21:27:57 ART 2022
PYTHON_CS_XFLAGS=' -O0 -g3 -ggdb3 -I/usr/include/jsoncpp ' /share/storage/pub/mstorti/saturne-vof/bin/code_saturne  run --param setup.xml

The following have been reloaded with a version change:
  1) llvm/6.0.0 => llvm/3.4.2


The following have been reloaded with a version change:
  1) llvm/3.4.2 => llvm/6.0.0


                      Code_Saturne
                      ************

 Version:   6.1-alpha
 Path:      /share/storage/pub/mstorti/saturne-vof

 Result directory:
   /share/storage/finzeo/GTS_Tunay_2/RESU/20220824-2128


 ****************************************
  Compiling user subroutines and linking
 ****************************************


 ****************************
  Preparing calculation data
 ****************************

 Parallel Code_Saturne on 120 processes.


 ***************************
  Preprocessing calculation
 ***************************


 **********************
  Starting calculation
 **********************

Warning: Process to core binding is enabled and OMP_NUM_THREADS is set to non-zero (1) value
If your program has OpenMP sections, this can cause over-subscription of cores and consequently poor performance
To avoid this, please re-run your application after setting MV2_ENABLE_AFFINITY=0
Use MV2_USE_THREAD_WARNING=0 to suppress this message
step 1, time 0.000500, maxvel 30.000000, total vol 183256, vol(u>maxvel) 7.14392, cell count 722640
bounding box (containing cells with vel>maxvel): xmin -12.29 -1.8456 -0.479314, xmax 0.19571 1.84587 4.03081m 
bounding box of vehicle: xmin -12.2 -1.30048 -6.45439e-18, xmax 6.48827e-18 1.30048 3.6m 
gts area: 163.394 
yplus max: 108.668, yplus min: 0 
position of yplus max: -8.44122 1.29065 3.44607 
yplus prom: 6.76579 
forces: 795697192.286071 1339497.877590 -94213747.533752 
Drag coefficient: 221985.417780 
torque (ref. CG): -1875297.028626 (roll) 539272209.244661 (pitch) -8170937.053299 (yaw) 
----------------------------------------------------- 
step 2, time 0.001000, maxvel 30.000000, total vol 183256, vol(u>maxvel) 7.45916, cell count 842769
bounding box (containing cells with vel>maxvel): xmin -12.2894 -1.84583 -0.485232, xmax 0.196549 1.8461 4.10545m 
bounding box of vehicle: xmin -12.2 -1.30048 -6.45439e-18, xmax 6.48827e-18 1.30048 3.6m 
gts area: 163.394 
yplus max: 110.043, yplus min: 0.17673 
position of yplus max: -12.1837 1.15587 0.211182 
yplus prom: 3.20424 
forces: 1164855.663447 28.578666 -143213.083047 
Drag coefficient: 324.974090 
torque (ref. CG): -40.010132 (roll) 757198.122241 (pitch) -174.329862 (yaw) 
----------------------------------------------------- 
step 3, time 0.001500, maxvel 30.000000, total vol 183256, vol(u>maxvel) 7.44454, cell count 865418
bounding box (containing cells with vel>maxvel): xmin -12.2894 -1.84578 -0.485232, xmax 0.196761 1.84606 4.10545m 
bounding box of vehicle: xmin -12.2 -1.30048 -6.45439e-18, xmax 6.48827e-18 1.30048 3.6m 
gts area: 163.394 
yplus max: 118.923, yplus min: 0.0400411 
position of yplus max: -12.0599 1.282 0.0519362 
yplus prom: 3.21324 
forces: 23658.674412 -6.995500 -3226.397817 
Drag coefficient: 6.600351 
torque (ref. CG): 9.793700 (roll) 13441.117495 (pitch) 42.672548 (yaw) 
----------------------------------------------------- 
step 4, time 0.002000, maxvel 30.000000, total vol 183256, vol(u>maxvel) 7.43292, cell count 898582
bounding box (containing cells with vel>maxvel): xmin -12.2892 -1.84578 -0.489784, xmax 0.269734 1.84606 4.10545m 
bounding box of vehicle: xmin -12.2 -1.30048 -6.45439e-18, xmax 6.48827e-18 1.30048 3.6m 
gts area: 163.394 
yplus max: 121.212, yplus min: 0.0548228 
position of yplus max: -12.0599 1.282 0.0519362 
yplus prom: 3.09075 
forces: 2272.631485 1.906382 -840.968375 
Drag coefficient: 0.634024 
torque (ref. CG): -2.668935 (roll) -1948.223011 (pitch) -11.628932 (yaw) 
----------------------------------------------------- 
step 5, time 0.002500, maxvel 30.000000, total vol 183256, vol(u>maxvel) 7.42671, cell count 917426
bounding box (containing cells with vel>maxvel): xmin -12.2889 -1.84578 -0.489784, xmax 0.269875 1.846 4.10545m 
bounding box of vehicle: xmin -12.2 -1.30048 -6.45439e-18, xmax 6.48827e-18 1.30048 3.6m 
gts area: 163.394 
yplus max: 122.733, yplus min: 0.0647159 
position of yplus max: -12.0599 1.282 0.0519362 
yplus prom: 2.9428 
forces: 2311.838952 0.380254 -900.676152 
Drag coefficient: 0.644962 
torque (ref. CG): -0.532356 (roll) -2257.549996 (pitch) -2.319551 (yaw) 
----------------------------------------------------- 
step 6, time 0.003000, maxvel 30.000000, total vol 183256, vol(u>maxvel) 7.41838, cell count 938689
bounding box (containing cells with vel>maxvel): xmin -12.2691 -1.84573 -0.489784, xmax 0.27024 1.846 4.10539m 
bounding box of vehicle: xmin -12.2 -1.30048 -6.45439e-18, xmax 6.48827e-18 1.30048 3.6m 
gts area: 163.394 
yplus max: 123.863, yplus min: 0.0605654 
position of yplus max: -12.0599 1.282 0.0519362 
yplus prom: 2.85717 
forces: 2446.389434 0.461681 -910.311996 
Drag coefficient: 0.682499 
torque (ref. CG): -0.646353 (roll) -2127.957968 (pitch) -2.816254 (yaw) 
----------------------------------------------------- 
step 7, time 0.003500, maxvel 30.000000, total vol 183256, vol(u>maxvel) 7.40215, cell count 956094
bounding box (containing cells with vel>maxvel): xmin -12.2691 -1.84573 -0.489784, xmax 0.270387 1.84594 4.10539m 
bounding box of vehicle: xmin -12.2 -1.30048 -6.45439e-18, xmax 6.48827e-18 1.30048 3.6m 
gts area: 163.394 
yplus max: 124.673, yplus min: 0.0313575 
position of yplus max: -12.0599 1.282 0.0519362 
yplus prom: 2.80614 
forces: 2532.947528 0.464597 -909.169322 
Drag coefficient: 0.706647 
torque (ref. CG): -0.650436 (roll) -1999.806327 (pitch) -2.834041 (yaw) 
----------------------------------------------------- 
step 8, time 0.004000, maxvel 30.000000, total vol 183256, vol(u>maxvel) 7.39028, cell count 972768
bounding box (containing cells with vel>maxvel): xmin -12.2691 -1.84568 -0.489784, xmax 0.270456 1.84594 4.10539m 
bounding box of vehicle: xmin -12.2 -1.30048 -6.45439e-18, xmax 6.48827e-18 1.30048 3.6m 
gts area: 163.394 
yplus max: 125.243, yplus min: 0.0539246 
position of yplus max: -12.0599 1.282 0.0519362 
yplus prom: 2.77716 
forces: 2605.043612 0.454288 -907.284941 
Drag coefficient: 0.726761 
torque (ref. CG): -0.636004 (roll) -1887.377081 (pitch) -2.771159 (yaw) 
----------------------------------------------------- 
step 9, time 0.004500, maxvel 30.000000, total vol 183256, vol(u>maxvel) 7.37292, cell count 985849
bounding box (containing cells with vel>maxvel): xmin -12.269 -1.84568 -0.493285, xmax 0.270486 1.84588 4.03081m 
bounding box of vehicle: xmin -12.2 -1.30048 -6.45439e-18, xmax 6.48827e-18 1.30048 3.6m 
gts area: 163.394 
yplus max: 125.65, yplus min: 0.0502279 
position of yplus max: -12.0599 1.282 0.0519362 
yplus prom: 2.76559 
forces: 2676.601115 0.443409 -905.268992 
Drag coefficient: 0.746724 
torque (ref. CG): -0.620772 (roll) -1774.899287 (pitch) -2.704794 (yaw) 
----------------------------------------------------- 
step 10, time 0.005000, maxvel 30.000000, total vol 183256, vol(u>maxvel) 7.3597, cell count 994548
bounding box (containing cells with vel>maxvel): xmin -12.269 -1.84568 -0.493285, xmax 0.270503 1.84587 4.03081m 
bounding box of vehicle: xmin -12.2 -1.30048 -6.45439e-18, xmax 6.48827e-18 1.30048 3.6m 
gts area: 163.394 
yplus max: 125.951, yplus min: 0.0473408 
position of yplus max: -12.0599 1.282 0.0519362 
yplus prom: 2.76319 
forces: 2741.336884 0.424098 -904.097611 
Drag coefficient: 0.764784 
torque (ref. CG): -0.593737 (roll) -1677.123789 (pitch) -2.586998 (yaw) 
----------------------------------------------------- 
step 11, time 0.005500, maxvel 30.000000, total vol 183256, vol(u>maxvel) 7.34882, cell count 1001382
bounding box (containing cells with vel>maxvel): xmin -12.269 -1.84563 -0.493285, xmax 0.270521 1.84582 4.03081m 
bounding box of vehicle: xmin -12.2 -1.30048 -6.45439e-18, xmax 6.48827e-18 1.30048 3.6m 
gts area: 163.394 
yplus max: 126.184, yplus min: 0.0453387 
position of yplus max: -12.0599 1.282 0.0519362 
yplus prom: 2.7682 
forces: 2799.479087 0.397242 -903.143118 
Drag coefficient: 0.781005 
torque (ref. CG): -0.556139 (roll) -1589.902300 (pitch) -2.423175 (yaw) 
----------------------------------------------------- 
step 12, time 0.006000, maxvel 30.000000, total vol 183256, vol(u>maxvel) 7.34512, cell count 1008233
bounding box (containing cells with vel>maxvel): xmin -12.269 -1.84563 -0.493285, xmax 0.270701 1.84582 4.03081m 
bounding box of vehicle: xmin -12.2 -1.30048 -6.45439e-18, xmax 6.48827e-18 1.30048 3.6m 
gts area: 163.394 
yplus max: 126.373, yplus min: 0.0443261 
position of yplus max: -12.0599 1.282 0.0519362 
yplus prom: 2.77824 
forces: 2853.044808 0.371226 -902.296625 
Drag coefficient: 0.795949 
torque (ref. CG): -0.519716 (roll) -1509.746679 (pitch) -2.264477 (yaw) 
----------------------------------------------------- 
step 13, time 0.006500, maxvel 30.000000, total vol 183256, vol(u>maxvel) 7.33924, cell count 1011501
bounding box (containing cells with vel>maxvel): xmin -12.269 -1.84559 -0.493285, xmax 0.270721 1.84574 4.03081m 
bounding box of vehicle: xmin -12.2 -1.30048 -6.45439e-18, xmax 6.48827e-18 1.30048 3.6m 
gts area: 163.394 
yplus max: 126.53, yplus min: 0.0443115 
position of yplus max: -12.0599 1.282 0.0519362 
yplus prom: 2.79154 
forces: 2901.221274 0.339846 -901.559185 
Drag coefficient: 0.809389 
torque (ref. CG): -0.475785 (roll) -1437.801243 (pitch) -2.073061 (yaw) 
----------------------------------------------------- 
step 14, time 0.007000, maxvel 30.000000, total vol 183256, vol(u>maxvel) 7.3337, cell count 1015162
bounding box (containing cells with vel>maxvel): xmin -12.269 -1.84559 -0.495979, xmax 0.271234 1.84574 4.03081m 
bounding box of vehicle: xmin -12.2 -1.30048 -6.45439e-18, xmax 6.48827e-18 1.30048 3.6m 
gts area: 163.394 
yplus max: 126.663, yplus min: 0.0405677 
position of yplus max: -12.0599 1.282 0.0519362 
yplus prom: 2.80679 
forces: 2943.395206 0.304702 -900.801343 
Drag coefficient: 0.821155 
torque (ref. CG): -0.426583 (roll) -1374.134906 (pitch) -1.858685 (yaw) 
----------------------------------------------------- 
step 15, time 0.007500, maxvel 30.000000, total vol 183256, vol(u>maxvel) 7.32779, cell count 1019906
bounding box (containing cells with vel>maxvel): xmin -12.269 -1.84556 -0.495979, xmax 0.271579 1.84566 4.03081m 
bounding box of vehicle: xmin -12.2 -1.30048 -6.45439e-18, xmax 6.48827e-18 1.30048 3.6m 
gts area: 163.394 
yplus max: 126.778, yplus min: 0.0376534 
position of yplus max: -12.0599 1.282 0.0519362 
yplus prom: 2.82316 
forces: 2981.791009 0.267613 -900.110998 
Drag coefficient: 0.831867 
torque (ref. CG): -0.374659 (roll) -1316.169673 (pitch) -1.632441 (yaw) 
----------------------------------------------------- 
step 16, time 0.008000, maxvel 30.000000, total vol 183256, vol(u>maxvel) 7.33289, cell count 1023463
bounding box (containing cells with vel>maxvel): xmin -12.269 -1.84556 -0.495979, xmax 0.271697 1.84566 4.03081m 
bounding box of vehicle: xmin -12.2 -1.30048 -6.45439e-18, xmax 6.48827e-18 1.30048 3.6m 
gts area: 163.394 
yplus max: 126.876, yplus min: 0.0362318 
position of yplus max: -12.0599 1.282 0.0519362 
yplus prom: 2.84006 
forces: 3014.488973 0.228250 -899.412582 
Drag coefficient: 0.840989 
torque (ref. CG): -0.319550 (roll) -1266.132189 (pitch) -1.392327 (yaw) 
----------------------------------------------------- 
step 17, time 0.008500, maxvel 30.000000, total vol 183256, vol(u>maxvel) 7.32122, cell count 1026440
bounding box (containing cells with vel>maxvel): xmin -12.269 -1.84556 -0.495979, xmax 0.271775 1.84566 4.03081m 
bounding box of vehicle: xmin -12.2 -1.30048 -6.45439e-18, xmax 6.48827e-18 1.30048 3.6m 
gts area: 163.394 
yplus max: 126.962, yplus min: 0.0366258 
position of yplus max: -12.0599 1.282 0.0519362 
yplus prom: 2.85702 
forces: 3041.584676 0.187976 -898.871278 
Drag coefficient: 0.848548 
torque (ref. CG): -0.263167 (roll) -1224.896253 (pitch) -1.146654 (yaw) 
----------------------------------------------------- 
step 18, time 0.009000, maxvel 30.000000, total vol 183256, vol(u>maxvel) 7.3141, cell count 1029280
bounding box (containing cells with vel>maxvel): xmin -12.269 -1.84553 -0.495979, xmax 0.271797 1.84557 4.03081m 
bounding box of vehicle: xmin -12.2 -1.30048 -6.45439e-18, xmax 6.48827e-18 1.30048 3.6m 
gts area: 163.394 
yplus max: 127.036, yplus min: 0.0343726 
position of yplus max: -12.0599 1.282 0.0519362 
yplus prom: 2.87365 
forces: 3063.347359 0.148890 -898.376018 
Drag coefficient: 0.854620 
torque (ref. CG): -0.208446 (roll) -1191.407408 (pitch) -0.908228 (yaw) 
----------------------------------------------------- 
step 19, time 0.009500, maxvel 30.000000, total vol 183256, vol(u>maxvel) 7.29906, cell count 1031883
bounding box (containing cells with vel>maxvel): xmin -12.269 -1.84553 -0.495979, xmax 0.344271 1.84557 4.03081m 
bounding box of vehicle: xmin -12.2 -1.30048 -6.45439e-18, xmax 6.48827e-18 1.30048 3.6m 
gts area: 163.394 
yplus max: 127.101, yplus min: 0.0308756 
position of yplus max: -12.0599 1.282 0.0519362 
yplus prom: 2.88955 
forces: 3081.391125 0.108264 -897.972438 
Drag coefficient: 0.859654 
torque (ref. CG): -0.151569 (roll) -1163.684296 (pitch) -0.660409 (yaw) 
----------------------------------------------------- 
step 20, time 0.010000, maxvel 30.000000, total vol 183256, vol(u>maxvel) 7.28779, cell count 1032840
bounding box (containing cells with vel>maxvel): xmin -12.269 -1.84549 -0.498051, xmax 0.344385 1.84547 4.03081m 
bounding box of vehicle: xmin -12.2 -1.30048 -6.45439e-18, xmax 6.48827e-18 1.30048 3.6m 
gts area: 163.394 
yplus max: 127.158, yplus min: 0.0301324 
position of yplus max: -12.0599 1.282 0.0519362 
yplus prom: 2.90442 
forces: 3096.024224 0.067328 -897.569841 
Drag coefficient: 0.863736 
torque (ref. CG): -0.094260 (roll) -1140.742117 (pitch) -0.410704 (yaw) 
----------------------------------------------------- 
step 21, time 0.010500, maxvel 30.000000, total vol 183256, vol(u>maxvel) 7.27862, cell count 1033791
bounding box (containing cells with vel>maxvel): xmin -12.269 -1.84549 -0.498051, xmax 0.344794 1.84547 4.03081m 
bounding box of vehicle: xmin -12.2 -1.30048 -6.45439e-18, xmax 6.48827e-18 1.30048 3.6m 
gts area: 163.394 
yplus max: 127.521, yplus min: 0.0314869 
position of yplus max: -12.0211 1.28998 2.0049 
yplus prom: 2.91809 
forces: 3108.153485 0.032862 -897.227425 
Drag coefficient: 0.867120 
torque (ref. CG): -0.046007 (roll) -1121.672412 (pitch) -0.200458 (yaw) 
----------------------------------------------------- 
step 22, time 0.011000, maxvel 30.000000, total vol 183256, vol(u>maxvel) 7.27252, cell count 1034041
bounding box (containing cells with vel>maxvel): xmin -12.269 -1.84543 -0.498051, xmax 0.34495 1.84536 4.03081m 
bounding box of vehicle: xmin -12.2 -1.30048 -6.45439e-18, xmax 6.48827e-18 1.30048 3.6m 
gts area: 163.394 
yplus max: 127.901, yplus min: 0.0262183 
position of yplus max: -12.0211 1.28998 2.0049 
yplus prom: 2.93046 
forces: 3117.601420 -0.003330 -896.922895 
Drag coefficient: 0.869756 
torque (ref. CG): 0.004662 (roll) -1106.587672 (pitch) 0.020311 (yaw) 
----------------------------------------------------- 
step 23, time 0.011500, maxvel 30.000000, total vol 183256, vol(u>maxvel) 7.25967, cell count 1036037
bounding box (containing cells with vel>maxvel): xmin -12.269 -1.84534 -0.498051, xmax 0.345059 1.84524 4.03081m 
bounding box of vehicle: xmin -12.2 -1.30048 -6.45439e-18, xmax 6.48827e-18 1.30048 3.6m 
gts area: 163.394 
yplus max: 128.231, yplus min: 0.0251518 
position of yplus max: -12.0211 1.28998 2.0049 
yplus prom: 2.94161 
forces: 3125.320166 -0.038090 -896.795740 
Drag coefficient: 0.871909 
torque (ref. CG): 0.053326 (roll) -1095.005784 (pitch) 0.232350 (yaw) 
----------------------------------------------------- 
step 24, time 0.012000, maxvel 30.000000, total vol 183256, vol(u>maxvel) 7.24956, cell count 1036195
bounding box (containing cells with vel>maxvel): xmin -12.269 -1.84521 -0.498051, xmax 0.345102 1.84512 4.03081m 
bounding box of vehicle: xmin -12.2 -1.30048 -6.45439e-18, xmax 6.48827e-18 1.30048 3.6m 
gts area: 163.394 
yplus max: 128.515, yplus min: 0.024548 
position of yplus max: -12.0211 1.28998 2.0049 
yplus prom: 2.95158 
forces: 3131.655041 -0.071212 -896.595084 
Drag coefficient: 0.873676 
torque (ref. CG): 0.099697 (roll) -1084.912953 (pitch) 0.434396 (yaw) 
----------------------------------------------------- 
step 25, time 0.012500, maxvel 30.000000, total vol 183256, vol(u>maxvel) 7.25525, cell count 1037556
bounding box (containing cells with vel>maxvel): xmin -12.269 -1.77102 -0.498051, xmax 0.345138 1.7712 4.03081m 
bounding box of vehicle: xmin -12.2 -1.30048 -6.45439e-18, xmax 6.48827e-18 1.30048 3.6m 
gts area: 163.394 
yplus max: 128.758, yplus min: 0.0205082 
position of yplus max: -12.0211 1.28998 2.0049 
yplus prom: 2.96049 
forces: 3136.597762 -0.092446 -896.390960 
Drag coefficient: 0.875055 
torque (ref. CG): 0.129425 (roll) -1076.747989 (pitch) 0.563922 (yaw) 
----------------------------------------------------- 
step 26, time 0.013000, maxvel 30.000000, total vol 183256, vol(u>maxvel) 7.26118, cell count 1037459
bounding box (containing cells with vel>maxvel): xmin -12.269 -1.77102 -0.498051, xmax 0.345165 1.7712 4.03081m 
bounding box of vehicle: xmin -12.2 -1.30048 -6.45439e-18, xmax 6.48827e-18 1.30048 3.6m 
gts area: 163.394 
yplus max: 128.966, yplus min: 0.0229893 
position of yplus max: -12.0211 1.28998 2.0049 
yplus prom: 2.96845 
forces: 3139.764554 -0.120131 -896.146587 
Drag coefficient: 0.875939 
torque (ref. CG): 0.168183 (roll) -1070.823808 (pitch) 0.732798 (yaw) 
----------------------------------------------------- 
step 27, time 0.013500, maxvel 30.000000, total vol 183256, vol(u>maxvel) 7.26313, cell count 1037581
bounding box (containing cells with vel>maxvel): xmin -12.269 -1.77102 -0.499644, xmax 0.345978 1.7712 4.03081m 
bounding box of vehicle: xmin -12.2 -1.30048 -6.45439e-18, xmax 6.48827e-18 1.30048 3.6m 
gts area: 163.394 
yplus max: 129.141, yplus min: 0.0188509 
position of yplus max: -12.0211 1.28998 2.0049 
yplus prom: 2.97559 
forces: 3141.124769 -0.132456 -895.973073 
Drag coefficient: 0.876318 
torque (ref. CG): 0.185438 (roll) -1067.861072 (pitch) 0.807980 (yaw) 
----------------------------------------------------- 
step 28, time 0.014000, maxvel 30.000000, total vol 183256, vol(u>maxvel) 7.26025, cell count 1037649
bounding box (containing cells with vel>maxvel): xmin -12.269 -1.77097 -0.499644, xmax 0.346223 1.7712 4.03081m 
bounding box of vehicle: xmin -12.2 -1.30048 -6.45439e-18, xmax 6.48827e-18 1.30048 3.6m 
gts area: 163.394 
yplus max: 129.289, yplus min: 0.017918 
position of yplus max: -12.0211 1.28998 2.0049 
yplus prom: 2.982 
forces: 3141.054417 -0.146655 -895.781154 
Drag coefficient: 0.876299 
torque (ref. CG): 0.205317 (roll) -1066.788858 (pitch) 0.894595 (yaw) 
----------------------------------------------------- 
step 29, time 0.014500, maxvel 30.000000, total vol 183256, vol(u>maxvel) 7.25408, cell count 1037770
bounding box (containing cells with vel>maxvel): xmin -12.269 -1.77097 -0.499644, xmax 0.346397 1.7712 4.03081m 
bounding box of vehicle: xmin -12.2 -1.30048 -6.45439e-18, xmax 6.48827e-18 1.30048 3.6m 
gts area: 163.394 
yplus max: 129.412, yplus min: 0.0173066 
position of yplus max: -12.0211 1.28998 2.0049 
yplus prom: 2.98778 
forces: 3139.683763 -0.156381 -895.542858 
Drag coefficient: 0.875916 
torque (ref. CG): 0.218934 (roll) -1067.254167 (pitch) 0.953925 (yaw) 
----------------------------------------------------- 
step 30, time 0.015000, maxvel 30.000000, total vol 183256, vol(u>maxvel) 7.25879, cell count 1037456
bounding box (containing cells with vel>maxvel): xmin -12.269 -1.77097 -0.499644, xmax 0.346439 1.77117 4.03081m 
bounding box of vehicle: xmin -12.2 -1.30048 -6.45439e-18, xmax 6.48827e-18 1.30048 3.6m 
gts area: 163.394 
yplus max: 129.515, yplus min: 0.0157514 
position of yplus max: -12.0211 1.28998 2.0049 
yplus prom: 2.99301 
forces: 3137.995437 -0.170519 -895.146079 
Drag coefficient: 0.875445 
torque (ref. CG): 0.238727 (roll) -1067.197473 (pitch) 1.040168 (yaw) 
----------------------------------------------------- 
step 31, time 0.015500, maxvel 30.000000, total vol 183256, vol(u>maxvel) 7.24954, cell count 1036054
bounding box (containing cells with vel>maxvel): xmin -12.269 -1.77097 -0.499644, xmax 0.346491 1.77117 4.03081m 
bounding box of vehicle: xmin -12.2 -1.30048 -6.45439e-18, xmax 6.48827e-18 1.30048 3.6m 
gts area: 163.394 
yplus max: 129.6, yplus min: 0.0139095 
position of yplus max: -12.0211 1.28998 2.0049 
yplus prom: 2.99768 
forces: 3135.204204 -0.172722 -894.903325 
Drag coefficient: 0.874666 
torque (ref. CG): 0.241811 (roll) -1069.624397 (pitch) 1.053604 (yaw) 
----------------------------------------------------- 
step 32, time 0.016000, maxvel 30.000000, total vol 183256, vol(u>maxvel) 7.24162, cell count 1034803
bounding box (containing cells with vel>maxvel): xmin -12.269 -1.77097 -0.499644, xmax 0.346516 1.77117 4.03081m 
bounding box of vehicle: xmin -12.2 -1.30048 -6.45439e-18, xmax 6.48827e-18 1.30048 3.6m 
gts area: 163.394 
yplus max: 129.671, yplus min: 0.0182982 
position of yplus max: -12.0211 1.28998 2.0049 
yplus prom: 3.00181 
forces: 3131.346918 -0.178086 -894.612255 
Drag coefficient: 0.873590 
torque (ref. CG): 0.249320 (roll) -1073.249068 (pitch) 1.086323 (yaw) 
----------------------------------------------------- 
step 33, time 0.016500, maxvel 30.000000, total vol 183256, vol(u>maxvel) 7.23863, cell count 1033905
bounding box (containing cells with vel>maxvel): xmin -12.269 -1.77097 -0.499644, xmax 0.346544 1.77117 4.03081m 
bounding box of vehicle: xmin -12.2 -1.30048 -6.45439e-18, xmax 6.48827e-18 1.30048 3.6m 
gts area: 163.394 
yplus max: 129.728, yplus min: 0.00574505 
position of yplus max: -12.0211 1.28998 2.0049 
yplus prom: 3.00546 
forces: 3127.784130 -0.182620 -894.276888 
Drag coefficient: 0.872596 
torque (ref. CG): 0.255668 (roll) -1076.191232 (pitch) 1.113983 (yaw) 
----------------------------------------------------- 
step 34, time 0.017000, maxvel 30.000000, total vol 183256, vol(u>maxvel) 7.22597, cell count 1031784
bounding box (containing cells with vel>maxvel): xmin -12.269 -1.77092 -0.499644, xmax 0.346573 1.77114 4.03076m 
bounding box of vehicle: xmin -12.2 -1.30048 -6.45439e-18, xmax 6.48827e-18 1.30048 3.6m 
gts area: 163.394 
yplus max: 129.774, yplus min: 0.0163423 
position of yplus max: -12.0211 1.28998 2.0049 
yplus prom: 3.00869 
forces: 3123.962534 -0.186212 -893.995239 
Drag coefficient: 0.871530 
torque (ref. CG): 0.260696 (roll) -1079.823408 (pitch) 1.135891 (yaw) 
----------------------------------------------------- 
step 35, time 0.017500, maxvel 30.000000, total vol 183256, vol(u>maxvel) 7.21433, cell count 1031174
bounding box (containing cells with vel>maxvel): xmin -12.269 -1.77092 -0.499644, xmax 0.346573 1.77114 4.03076m 
bounding box of vehicle: xmin -12.2 -1.30048 -6.45439e-18, xmax 6.48827e-18 1.30048 3.6m 
gts area: 163.394 
yplus max: 129.812, yplus min: 0.0121505 
position of yplus max: -12.0211 1.28998 2.0049 
yplus prom: 3.01158 
forces: 3119.405883 -0.183122 -893.811245 
Drag coefficient: 0.870259 
torque (ref. CG): 0.256371 (roll) -1085.080361 (pitch) 1.117044 (yaw) 
----------------------------------------------------- 
step 36, time 0.018000, maxvel 30.000000, total vol 183256, vol(u>maxvel) 7.20732, cell count 1029358
bounding box (containing cells with vel>maxvel): xmin -12.269 -1.77092 -0.50087, xmax 0.346602 1.77114 4.03076m 
bounding box of vehicle: xmin -12.2 -1.30048 -6.45439e-18, xmax 6.48827e-18 1.30048 3.6m 
gts area: 163.394 
yplus max: 129.842, yplus min: 0.0170646 
position of yplus max: -12.0211 1.28998 2.0049 
yplus prom: 3.01421 
forces: 3114.439584 -0.178959 -893.632976 
Drag coefficient: 0.868873 
torque (ref. CG): 0.250542 (roll) -1090.945734 (pitch) 1.091647 (yaw) 
----------------------------------------------------- 
step 37, time 0.018500, maxvel 30.000000, total vol 183256, vol(u>maxvel) 7.19735, cell count 1027003
bounding box (containing cells with vel>maxvel): xmin -12.269 -1.77092 -0.50087, xmax 0.346602 1.77114 4.03076m 
bounding box of vehicle: xmin -12.2 -1.30048 -6.45439e-18, xmax 6.48827e-18 1.30048 3.6m 
gts area: 163.394 
yplus max: 129.865, yplus min: 0.0177367 
position of yplus max: -12.0211 1.28998 2.0049 
yplus prom: 3.01658 
forces: 3109.267059 -0.183624 -893.353896 
Drag coefficient: 0.867430 
torque (ref. CG): 0.257073 (roll) -1096.484884 (pitch) 1.120104 (yaw) 
----------------------------------------------------- 
step 38, time 0.019000, maxvel 30.000000, total vol 183256, vol(u>maxvel) 7.18209, cell count 1025222
bounding box (containing cells with vel>maxvel): xmin -12.269 -1.77092 -0.50087, xmax 0.419519 1.77114 4.03076m 
bounding box of vehicle: xmin -12.2 -1.30048 -6.45439e-18, xmax 6.48827e-18 1.30048 3.6m 
gts area: 163.394 
yplus max: 129.883, yplus min: 0.0190639 
position of yplus max: -12.0211 1.28998 2.0049 
yplus prom: 3.01871 
forces: 3104.029122 -0.176947 -893.134050 
Drag coefficient: 0.865969 
torque (ref. CG): 0.247726 (roll) -1102.476936 (pitch) 1.079377 (yaw) 
----------------------------------------------------- 
step 39, time 0.019500, maxvel 30.000000, total vol 183256, vol(u>maxvel) 7.17638, cell count 1023703
bounding box (containing cells with vel>maxvel): xmin -12.269 -1.77088 -0.50087, xmax 0.419649 1.77112 4.03076m 
bounding box of vehicle: xmin -12.2 -1.30048 -6.45439e-18, xmax 6.48827e-18 1.30048 3.6m 
gts area: 163.394 
yplus max: 129.897, yplus min: 0.0152311 
position of yplus max: -12.0211 1.28998 2.0049 
yplus prom: 3.02066 
forces: 3098.929253 -0.179828 -892.857528 
Drag coefficient: 0.864546 
torque (ref. CG): 0.251760 (roll) -1107.929966 (pitch) 1.096953 (yaw) 
----------------------------------------------------- 
step 40, time 0.020000, maxvel 30.000000, total vol 183256, vol(u>maxvel) 7.17095, cell count 1021537
bounding box (containing cells with vel>maxvel): xmin -12.269 -1.77088 -0.50087, xmax 0.420465 1.77112 4.03076m 
bounding box of vehicle: xmin -12.2 -1.30048 -6.45439e-18, xmax 6.48827e-18 1.30048 3.6m 
gts area: 163.394 
yplus max: 129.906, yplus min: 0.0147009 
position of yplus max: -12.0211 1.28998 2.0049 
yplus prom: 3.02244 
forces: 3093.814803 -0.182741 -892.641941 
Drag coefficient: 0.863120 
torque (ref. CG): 0.255837 (roll) -1113.775118 (pitch) 1.114719 (yaw) 
----------------------------------------------------- 
step 41, time 0.020500, maxvel 30.000000, total vol 183256, vol(u>maxvel) 7.16127, cell count 1018601
bounding box (containing cells with vel>maxvel): xmin -12.269 -1.77088 -0.50087, xmax 0.420855 1.77112 4.03076m 
bounding box of vehicle: xmin -12.2 -1.30048 -6.45439e-18, xmax 6.48827e-18 1.30048 3.6m 
gts area: 163.394 
yplus max: 129.913, yplus min: 0.0132427 
position of yplus max: -12.0211 1.28998 2.0049 
yplus prom: 3.02406 
forces: 3088.458230 -0.178251 -892.455903 
Drag coefficient: 0.861625 
torque (ref. CG): 0.249552 (roll) -1120.139485 (pitch) 1.087334 (yaw) 
----------------------------------------------------- 
step 42, time 0.021000, maxvel 30.000000, total vol 183256, vol(u>maxvel) 7.14584, cell count 1015961
bounding box (containing cells with vel>maxvel): xmin -12.269 -1.77088 -0.501814, xmax 0.42099 1.77112 4.03076m 
bounding box of vehicle: xmin -12.2 -1.30048 -6.45439e-18, xmax 6.48827e-18 1.30048 3.6m 
gts area: 163.394 
yplus max: 129.917, yplus min: 0.00777638 
position of yplus max: -12.0211 1.28998 2.0049 
yplus prom: 3.02558 
forces: 3082.908184 -0.175532 -892.255554 
Drag coefficient: 0.860077 
torque (ref. CG): 0.245744 (roll) -1126.687422 (pitch) 1.070743 (yaw) 
----------------------------------------------------- 
step 43, time 0.021500, maxvel 30.000000, total vol 183256, vol(u>maxvel) 7.12807, cell count 1012657
bounding box (containing cells with vel>maxvel): xmin -12.269 -1.77083 -0.501814, xmax 0.42105 1.77108 4.03076m 
bounding box of vehicle: xmin -12.2 -1.30048 -6.45439e-18, xmax 6.48827e-18 1.30048 3.6m 
gts area: 163.394 
yplus max: 129.918, yplus min: 0.0185509 
position of yplus max: -12.0211 1.28998 2.0049 
yplus prom: 3.02699 
forces: 3077.168450 -0.181583 -892.030431 
Drag coefficient: 0.858475 
torque (ref. CG): 0.254216 (roll) -1133.349802 (pitch) 1.107656 (yaw) 
----------------------------------------------------- 
step 44, time 0.022000, maxvel 30.000000, total vol 183256, vol(u>maxvel) 7.10855, cell count 1010141
bounding box (containing cells with vel>maxvel): xmin -12.269 -1.77083 -0.501814, xmax 0.421102 1.77108 4.02972m 
bounding box of vehicle: xmin -12.2 -1.30048 -6.45439e-18, xmax 6.48827e-18 1.30048 3.6m 
gts area: 163.394 
yplus max: 129.918, yplus min: 0.0211196 
position of yplus max: -12.0211 1.28998 2.0049 
yplus prom: 3.02831 
forces: 3071.248281 -0.168542 -891.803594 
Drag coefficient: 0.856824 
torque (ref. CG): 0.235959 (roll) -1140.254331 (pitch) 1.028108 (yaw) 
----------------------------------------------------- 
step 45, time 0.022500, maxvel 30.000000, total vol 183256, vol(u>maxvel) 7.09467, cell count 1007165
bounding box (containing cells with vel>maxvel): xmin -12.269 -1.77083 -0.501814, xmax 0.421143 1.77108 4.02972m 
bounding box of vehicle: xmin -12.2 -1.30048 -6.45439e-18, xmax 6.48827e-18 1.30048 3.6m 
gts area: 163.394 
yplus max: 129.916, yplus min: 0.0199854 
position of yplus max: -12.0211 1.28998 2.0049 
yplus prom: 3.02953 
forces: 3065.159732 -0.172533 -891.529083 
Drag coefficient: 0.855125 
torque (ref. CG): 0.241547 (roll) -1147.103782 (pitch) 1.052454 (yaw) 
----------------------------------------------------- 
step 46, time 0.023000, maxvel 30.000000, total vol 183256, vol(u>maxvel) 7.08414, cell count 1004565
bounding box (containing cells with vel>maxvel): xmin -12.269 -1.77079 -0.501814, xmax 0.42118 1.77104 4.02972m 
bounding box of vehicle: xmin -12.2 -1.30048 -6.45439e-18, xmax 6.48827e-18 1.30048 3.6m 
gts area: 163.394 
yplus max: 129.914, yplus min: 0.0237369 
position of yplus max: -12.0211 1.28998 2.0049 
yplus prom: 3.03065 
forces: 3058.966664 -0.170674 -891.358897 
Drag coefficient: 0.853397 
torque (ref. CG): 0.238944 (roll) -1154.735943 (pitch) 1.041112 (yaw) 
----------------------------------------------------- 
step 47, time 0.023500, maxvel 30.000000, total vol 183256, vol(u>maxvel) 7.07162, cell count 1001036
bounding box (containing cells with vel>maxvel): xmin -12.269 -1.77079 -0.502539, xmax 0.421218 1.77104 4.02972m 
bounding box of vehicle: xmin -12.2 -1.30048 -6.45439e-18, xmax 6.48827e-18 1.30048 3.6m 
gts area: 163.394 
yplus max: 129.91, yplus min: 0.0269091 
position of yplus max: -12.0211 1.28998 2.0049 
yplus prom: 3.03167 
forces: 3052.401769 -0.172464 -891.113153 
Drag coefficient: 0.851566 
torque (ref. CG): 0.241450 (roll) -1162.427758 (pitch) 1.052030 (yaw) 
----------------------------------------------------- 
step 48, time 0.024000, maxvel 30.000000, total vol 183256, vol(u>maxvel) 7.04524, cell count 997188
bounding box (containing cells with vel>maxvel): xmin -12.269 -1.77079 -0.502539, xmax 0.421257 1.77104 4.02972m 
bounding box of vehicle: xmin -12.2 -1.30048 -6.45439e-18, xmax 6.48827e-18 1.30048 3.6m 
gts area: 163.394 
yplus max: 129.905, yplus min: 0.0308975 
position of yplus max: -12.0211 1.28998 2.0049 
yplus prom: 3.03261 
forces: 3045.608798 -0.161956 -890.835899 
Drag coefficient: 0.849671 
torque (ref. CG): 0.226739 (roll) -1170.246667 (pitch) 0.987934 (yaw) 
----------------------------------------------------- 
step 49, time 0.024500, maxvel 30.000000, total vol 183256, vol(u>maxvel) 7.03472, cell count 993481
bounding box (containing cells with vel>maxvel): xmin -12.269 -1.77077 -0.502539, xmax 0.421257 1.77098 4.02972m 
bounding box of vehicle: xmin -12.2 -1.30048 -6.45439e-18, xmax 6.48827e-18 1.30048 3.6m 
gts area: 163.394 
yplus max: 129.899, yplus min: 0.03366 
position of yplus max: -12.0211 1.28998 2.0049 
yplus prom: 3.03346 
forces: 3038.690946 -0.168949 -890.537282 
Drag coefficient: 0.847741 
torque (ref. CG): 0.236528 (roll) -1178.110097 (pitch) 1.030587 (yaw) 
----------------------------------------------------- 
step 50, time 0.025000, maxvel 30.000000, total vol 183256, vol(u>maxvel) 7.01287, cell count 989225
bounding box (containing cells with vel>maxvel): xmin -12.269 -1.77077 -0.502539, xmax 0.421294 1.77098 4.02972m 
bounding box of vehicle: xmin -12.2 -1.30048 -6.45439e-18, xmax 6.48827e-18 1.30048 3.6m 
gts area: 163.394 
yplus max: 129.894, yplus min: 0.00879348 
position of yplus max: -12.0211 1.28998 2.0049 
yplus prom: 3.03423 
forces: 3031.737612 -0.159203 -890.306991 
Drag coefficient: 0.845801 
torque (ref. CG): 0.222884 (roll) -1186.439986 (pitch) 0.971139 (yaw) 
----------------------------------------------------- 
step 51, time 0.025500, maxvel 30.000000, total vol 183256, vol(u>maxvel) 6.98981, cell count 985029
bounding box (containing cells with vel>maxvel): xmin -12.269 -1.77077 -0.502539, xmax 0.421294 1.77091 4.02972m 
bounding box of vehicle: xmin -12.2 -1.30048 -6.45439e-18, xmax 6.48827e-18 1.30048 3.6m 
gts area: 163.394 
yplus max: 129.887, yplus min: 0.0327295 
position of yplus max: -12.0211 1.28998 2.0049 
yplus prom: 3.03492 
forces: 3024.810815 -0.164132 -890.042191 
Drag coefficient: 0.843869 
torque (ref. CG): 0.229784 (roll) -1194.522227 (pitch) 1.001203 (yaw) 
----------------------------------------------------- 
step 52, time 0.026000, maxvel 30.000000, total vol 183256, vol(u>maxvel) 6.97197, cell count 980199
bounding box (containing cells with vel>maxvel): xmin -12.269 -1.77077 -0.502539, xmax 0.421294 1.77091 4.02829m 
bounding box of vehicle: xmin -12.2 -1.30048 -6.45439e-18, xmax 6.48827e-18 1.30048 3.6m 
gts area: 163.394 
yplus max: 129.881, yplus min: 0.0313901 
position of yplus max: -12.0211 1.28998 2.0049 
yplus prom: 3.03555 
forces: 3017.630263 -0.156449 -889.765445 
Drag coefficient: 0.841865 
torque (ref. CG): 0.219029 (roll) -1202.886846 (pitch) 0.954339 (yaw) 
----------------------------------------------------- 
step 53, time 0.026500, maxvel 30.000000, total vol 183256, vol(u>maxvel) 6.95676, cell count 975964
bounding box (containing cells with vel>maxvel): xmin -12.269 -1.77077 -0.503097, xmax 0.421329 1.77084 4.02829m 
bounding box of vehicle: xmin -12.2 -1.30048 -6.45439e-18, xmax 6.48827e-18 1.30048 3.6m 
gts area: 163.394 
yplus max: 129.874, yplus min: 0.00847199 
position of yplus max: -12.0211 1.28998 2.0049 
yplus prom: 3.0361 
forces: 3010.458849 -0.156794 -889.459264 
Drag coefficient: 0.839865 
torque (ref. CG): 0.219511 (roll) -1211.059121 (pitch) 0.956441 (yaw) 
----------------------------------------------------- 
step 54, time 0.027000, maxvel 30.000000, total vol 183256, vol(u>maxvel) 6.93807, cell count 971445
bounding box (containing cells with vel>maxvel): xmin -12.269 -1.77077 -0.503097, xmax 0.494131 1.77084 4.02829m 
bounding box of vehicle: xmin -12.2 -1.30048 -6.45439e-18, xmax 6.48827e-18 1.30048 3.6m 
gts area: 163.394 
yplus max: 129.867, yplus min: 0.030137 
position of yplus max: -12.0211 1.28998 2.0049 
yplus prom: 3.03659 
forces: 3003.317317 -0.151975 -889.234750 
Drag coefficient: 0.837872 
torque (ref. CG): 0.212765 (roll) -1219.687728 (pitch) 0.927048 (yaw) 
----------------------------------------------------- 
step 55, time 0.027500, maxvel 30.000000, total vol 183256, vol(u>maxvel) 6.9329, cell count 966897
bounding box (containing cells with vel>maxvel): xmin -12.269 -1.77077 -0.503097, xmax 0.495412 1.77076 4.02829m 
bounding box of vehicle: xmin -12.2 -1.30048 -6.45439e-18, xmax 6.48827e-18 1.30048 3.6m 
gts area: 163.394 
yplus max: 129.86, yplus min: 0.0309082 
position of yplus max: -12.0211 1.28998 2.0049 
yplus prom: 3.03702 
forces: 2996.513882 -0.153967 -888.961703 
Drag coefficient: 0.835974 
torque (ref. CG): 0.215554 (roll) -1227.546953 (pitch) 0.939199 (yaw) 
----------------------------------------------------- 
step 56, time 0.028000, maxvel 30.000000, total vol 183256, vol(u>maxvel) 6.9119, cell count 962137
bounding box (containing cells with vel>maxvel): xmin -12.269 -1.77075 -0.503097, xmax 0.495561 1.77067 3.95617m 
bounding box of vehicle: xmin -12.2 -1.30048 -6.45439e-18, xmax 6.48827e-18 1.30048 3.6m 
gts area: 163.394 
yplus max: 129.853, yplus min: 0.0189367 
position of yplus max: -12.0211 1.28998 2.0049 
yplus prom: 3.03739 
forces: 2990.033338 -0.159207 -888.799059 
Drag coefficient: 0.834166 
torque (ref. CG): 0.222890 (roll) -1235.627589 (pitch) 0.971164 (yaw) 
----------------------------------------------------- 
step 57, time 0.028500, maxvel 30.000000, total vol 183256, vol(u>maxvel) 6.88897, cell count 957209
bounding box (containing cells with vel>maxvel): xmin -12.269 -1.77075 -0.503097, xmax 0.495715 1.77067 3.95617m 
bounding box of vehicle: xmin -12.2 -1.30048 -6.45439e-18, xmax 6.48827e-18 1.30048 3.6m 
gts area: 163.394 
yplus max: 129.846, yplus min: 0.0141686 
position of yplus max: -12.0211 1.28998 2.0049 
yplus prom: 3.0377 
forces: 2983.592026 -0.155021 -888.622862 
Drag coefficient: 0.832369 
torque (ref. CG): 0.217030 (roll) -1243.570624 (pitch) 0.945629 (yaw) 
----------------------------------------------------- 
step 58, time 0.029000, maxvel 30.000000, total vol 183256, vol(u>maxvel) 6.86351, cell count 951772
bounding box (containing cells with vel>maxvel): xmin -12.269 -1.7707 -0.503097, xmax 0.495783 1.77057 3.95613m 
bounding box of vehicle: xmin -12.2 -1.30048 -6.45439e-18, xmax 6.48827e-18 1.30048 3.6m 
gts area: 163.394 
yplus max: 129.839, yplus min: 0.013863 
position of yplus max: -12.0211 1.28998 2.0049 
yplus prom: 3.03794 
forces: 2977.133961 -0.152202 -888.504935 
Drag coefficient: 0.830568 
torque (ref. CG): 0.213083 (roll) -1251.892557 (pitch) 0.928432 (yaw) 
----------------------------------------------------- 
step 59, time 0.029500, maxvel 30.000000, total vol 183256, vol(u>maxvel) 6.84923, cell count 947092
bounding box (containing cells with vel>maxvel): xmin -12.269 -1.77047 -0.503097, xmax 0.495843 1.7704 3.95613m 
bounding box of vehicle: xmin -12.2 -1.30048 -6.45439e-18, xmax 6.48827e-18 1.30048 3.6m 
gts area: 163.394 
yplus max: 129.832, yplus min: 0.0178121 
position of yplus max: -12.0211 1.28998 2.0049 
yplus prom: 3.03813 
forces: 2970.548959 -0.145312 -888.371199 
Drag coefficient: 0.828731 
torque (ref. CG): 0.203437 (roll) -1260.295771 (pitch) 0.886403 (yaw) 
----------------------------------------------------- 
step 60, time 0.030000, maxvel 30.000000, total vol 183256, vol(u>maxvel) 6.83085, cell count 941767
bounding box (containing cells with vel>maxvel): xmin -12.269 -1.77036 -0.503097, xmax 0.495897 1.7704 3.95613m 
bounding box of vehicle: xmin -12.2 -1.30048 -6.45439e-18, xmax 6.48827e-18 1.30048 3.6m 
gts area: 163.394 
yplus max: 129.825, yplus min: 0.0287495 
position of yplus max: -12.0211 1.28998 2.0049 
yplus prom: 3.03826 
forces: 2963.981792 -0.143596 -888.232995 
Drag coefficient: 0.826898 
torque (ref. CG): 0.201034 (roll) -1268.646759 (pitch) 0.875935 (yaw) 
----------------------------------------------------- 
step 61, time 0.030500, maxvel 30.000000, total vol 183256, vol(u>maxvel) 6.81717, cell count 936982
bounding box (containing cells with vel>maxvel): xmin -12.269 -1.77036 -0.503097, xmax 0.495897 1.77036 3.95613m 
bounding box of vehicle: xmin -12.2 -1.30048 -6.45439e-18, xmax 6.48827e-18 1.30048 3.6m 
gts area: 163.394 
yplus max: 129.818, yplus min: 0.0229154 
position of yplus max: -12.0211 1.28998 2.0049 
yplus prom: 3.03835 
forces: 2957.600554 -0.143818 -888.100877 
Drag coefficient: 0.825118 
torque (ref. CG): 0.201345 (roll) -1276.774578 (pitch) 0.877291 (yaw) 
----------------------------------------------------- 
step 62, time 0.031000, maxvel 30.000000, total vol 183256, vol(u>maxvel) 6.80985, cell count 931597
bounding box (containing cells with vel>maxvel): xmin -12.269 -1.77034 -0.503097, xmax 0.495949 1.7703 3.95613m 
bounding box of vehicle: xmin -12.2 -1.30048 -6.45439e-18, xmax 6.48827e-18 1.30048 3.6m 
gts area: 163.394 
yplus max: 129.811, yplus min: 0.0193594 
position of yplus max: -12.0211 1.28998 2.0049 
yplus prom: 3.03839 
forces: 2951.281125 -0.144107 -888.025621 
Drag coefficient: 0.823355 
torque (ref. CG): 0.201749 (roll) -1285.162712 (pitch) 0.879050 (yaw) 
----------------------------------------------------- 
step 63, time 0.031500, maxvel 30.000000, total vol 183256, vol(u>maxvel) 6.79272, cell count 926151
bounding box (containing cells with vel>maxvel): xmin -12.269 -1.77028 -0.503097, xmax 0.495949 1.7703 3.95613m 
bounding box of vehicle: xmin -12.2 -1.30048 -6.45439e-18, xmax 6.48827e-18 1.30048 3.6m 
gts area: 163.394 
yplus max: 129.804, yplus min: 0.0218869 
position of yplus max: -12.0211 1.28998 2.0049 
yplus prom: 3.03839 
forces: 2945.043214 -0.138614 -887.876417 
Drag coefficient: 0.821615 
torque (ref. CG): 0.194060 (roll) -1292.985647 (pitch) 0.845545 (yaw) 
----------------------------------------------------- 
step 64, time 0.032000, maxvel 30.000000, total vol 183256, vol(u>maxvel) 6.77827, cell count 920965
bounding box (containing cells with vel>maxvel): xmin -12.269 -1.77028 -0.503097, xmax 0.496 1.7703 3.95613m 
bounding box of vehicle: xmin -12.2 -1.30048 -6.45439e-18, xmax 6.48827e-18 1.30048 3.6m 
gts area: 163.394 
yplus max: 129.798, yplus min: 0.0252707 
position of yplus max: -12.0211 1.28998 2.0049 
yplus prom: 3.03834 
forces: 2938.785814 -0.143367 -887.761519 
Drag coefficient: 0.819869 
torque (ref. CG): 0.200714 (roll) -1301.045128 (pitch) 0.874540 (yaw) 
----------------------------------------------------- 
step 65, time 0.032500, maxvel 30.000000, total vol 183256, vol(u>maxvel) 6.77599, cell count 915235
bounding box (containing cells with vel>maxvel): xmin -12.269 -1.77028 -0.503097, xmax 0.496 1.7703 3.95613m 
bounding box of vehicle: xmin -12.2 -1.30048 -6.45439e-18, xmax 6.48827e-18 1.30048 3.6m 
gts area: 163.394 
yplus max: 129.792, yplus min: 0.0268258 
position of yplus max: -12.0211 1.28998 2.0049 
yplus prom: 3.03827 
forces: 2932.695834 -0.138678 -887.645579 
Drag coefficient: 0.818170 
torque (ref. CG): 0.194149 (roll) -1308.863865 (pitch) 0.845935 (yaw) 
----------------------------------------------------- 
step 66, time 0.033000, maxvel 30.000000, total vol 183256, vol(u>maxvel) 6.76251, cell count 909931
bounding box (containing cells with vel>maxvel): xmin -12.269 -1.77028 -0.503097, xmax 0.496 1.7703 3.95613m 
bounding box of vehicle: xmin -12.2 -1.30048 -6.45439e-18, xmax 6.48827e-18 1.30048 3.6m 
gts area: 163.394 
yplus max: 129.785, yplus min: 0.0264867 
position of yplus max: -12.0211 1.28998 2.0049 
yplus prom: 3.03815 
forces: 2926.891897 -0.159765 -887.484556 
Drag coefficient: 0.816551 
torque (ref. CG): 0.223671 (roll) -1316.007134 (pitch) 0.974568 (yaw) 
----------------------------------------------------- 
step 67, time 0.033500, maxvel 30.000000, total vol 183256, vol(u>maxvel) 6.74599, cell count 904228
bounding box (containing cells with vel>maxvel): xmin -12.269 -1.77028 -0.503097, xmax 0.496049 1.7703 3.95613m 
bounding box of vehicle: xmin -12.2 -1.30048 -6.45439e-18, xmax 6.48827e-18 1.30048 3.6m 
gts area: 163.394 
yplus max: 129.779, yplus min: 0.026165 
position of yplus max: -12.0211 1.28998 2.0049 
yplus prom: 3.03801 
forces: 2921.170734 -0.138205 -887.427563 
Drag coefficient: 0.814955 
torque (ref. CG): 0.193487 (roll) -1323.669105 (pitch) 0.843051 (yaw) 
----------------------------------------------------- 
step 68, time 0.034000, maxvel 30.000000, total vol 183256, vol(u>maxvel) 6.72816, cell count 898573
bounding box (containing cells with vel>maxvel): xmin -12.269 -1.77028 -0.503097, xmax 0.496049 1.7703 3.95613m 
bounding box of vehicle: xmin -12.2 -1.30048 -6.45439e-18, xmax 6.48827e-18 1.30048 3.6m 
gts area: 163.394 
yplus max: 129.773, yplus min: 0.025863 
position of yplus max: -12.0211 1.28998 2.0049 
yplus prom: 3.03783 
forces: 2915.440576 -0.145935 -887.186318 
Drag coefficient: 0.813356 
torque (ref. CG): 0.204309 (roll) -1330.219730 (pitch) 0.890202 (yaw) 
----------------------------------------------------- 
step 69, time 0.034500, maxvel 30.000000, total vol 183256, vol(u>maxvel) 6.71586, cell count 893722
bounding box (containing cells with vel>maxvel): xmin -12.269 -1.77028 -0.503097, xmax 0.496049 1.7703 3.95613m 
bounding box of vehicle: xmin -12.2 -1.30048 -6.45439e-18, xmax 6.48827e-18 1.30048 3.6m 
gts area: 163.394 
yplus max: 129.768, yplus min: 0.0255868 
position of yplus max: -12.0211 1.28998 2.0049 
yplus prom: 3.03761 
forces: 2909.696104 -0.149520 -887.000271 
Drag coefficient: 0.811754 
torque (ref. CG): 0.209328 (roll) -1337.127109 (pitch) 0.912071 (yaw) 
----------------------------------------------------- 
step 70, time 0.035000, maxvel 30.000000, total vol 183256, vol(u>maxvel) 6.70509, cell count 888211
bounding box (containing cells with vel>maxvel): xmin -12.269 -1.77028 -0.503097, xmax 0.570131 1.77016 3.95511m 
bounding box of vehicle: xmin -12.2 -1.30048 -6.45439e-18, xmax 6.48827e-18 1.30048 3.6m 
gts area: 163.394 
yplus max: 129.762, yplus min: 0.0253327 
position of yplus max: -12.0211 1.28998 2.0049 
yplus prom: 3.03735 
forces: 2903.955585 -0.146136 -886.777167 
Drag coefficient: 0.810152 
torque (ref. CG): 0.204591 (roll) -1343.802900 (pitch) 0.891432 (yaw) 
----------------------------------------------------- 
step 71, time 0.035500, maxvel 30.000000, total vol 183256, vol(u>maxvel) 6.6846, cell count 883425
bounding box (containing cells with vel>maxvel): xmin -12.269 -1.77018 -0.503097, xmax 0.570333 1.77016 3.95511m 
bounding box of vehicle: xmin -12.2 -1.30048 -6.45439e-18, xmax 6.48827e-18 1.30048 3.6m 
gts area: 163.394 
yplus max: 129.757, yplus min: 0.0251062 
position of yplus max: -12.0211 1.28998 2.0049 
yplus prom: 3.03705 
forces: 2898.270752 -0.146118 -886.562584 
Drag coefficient: 0.808566 
torque (ref. CG): 0.204565 (roll) -1350.452707 (pitch) 0.891321 (yaw) 
----------------------------------------------------- 
step 72, time 0.036000, maxvel 30.000000, total vol 183256, vol(u>maxvel) 6.676, cell count 877916
bounding box (containing cells with vel>maxvel): xmin -12.269 -1.77018 -0.503097, xmax 0.570427 1.77016 3.95511m 
bounding box of vehicle: xmin -12.2 -1.30048 -6.45439e-18, xmax 6.48827e-18 1.30048 3.6m 
gts area: 163.394 
yplus max: 129.751, yplus min: 0.024912 
position of yplus max: -12.0211 1.28998 2.0049 
yplus prom: 3.03672 
forces: 2892.620875 -0.155272 -886.354206 
Drag coefficient: 0.806990 
torque (ref. CG): 0.217380 (roll) -1357.091434 (pitch) 0.947158 (yaw) 
----------------------------------------------------- 
step 73, time 0.036500, maxvel 30.000000, total vol 183256, vol(u>maxvel) 6.65389, cell count 872600
bounding box (containing cells with vel>maxvel): xmin -12.269 -1.77018 -0.503097, xmax 0.570516 1.77016 3.95511m 
bounding box of vehicle: xmin -12.2 -1.30048 -6.45439e-18, xmax 6.48827e-18 1.30048 3.6m 
gts area: 163.394 
yplus max: 129.746, yplus min: 0.0247458 
position of yplus max: -12.0211 1.28998 2.0049 
yplus prom: 3.03635 
forces: 2887.103238 -0.155069 -886.148226 
Drag coefficient: 0.805451 
torque (ref. CG): 0.217097 (roll) -1363.559645 (pitch) 0.945922 (yaw) 
----------------------------------------------------- 
step 74, time 0.037000, maxvel 30.000000, total vol 183256, vol(u>maxvel) 6.6297, cell count 867067
bounding box (containing cells with vel>maxvel): xmin -12.269 -1.77018 -0.503097, xmax 0.570602 1.77016 3.95511m 
bounding box of vehicle: xmin -12.2 -1.30048 -6.45439e-18, xmax 6.48827e-18 1.30048 3.6m 
gts area: 163.394 
yplus max: 129.741, yplus min: 0.0246108 
position of yplus max: -12.0211 1.28998 2.0049 
yplus prom: 3.03595 
forces: 2881.708800 -0.160928 -885.900366 
Drag coefficient: 0.803946 
torque (ref. CG): 0.225299 (roll) -1369.599913 (pitch) 0.981658 (yaw) 
----------------------------------------------------- 
step 75, time 0.037500, maxvel 30.000000, total vol 183256, vol(u>maxvel) 6.61913, cell count 862035
bounding box (containing cells with vel>maxvel): xmin -12.269 -1.77018 -0.503097, xmax 0.57068 1.77016 3.95511m 
bounding box of vehicle: xmin -12.2 -1.30048 -6.45439e-18, xmax 6.48827e-18 1.30048 3.6m 
gts area: 163.394 
yplus max: 129.736, yplus min: 0.024512 
position of yplus max: -12.0211 1.28998 2.0049 
yplus prom: 3.03553 
forces: 2876.336302 -0.147408 -885.651684 
Drag coefficient: 0.802447 
torque (ref. CG): 0.206371 (roll) -1375.604449 (pitch) 0.899189 (yaw) 
----------------------------------------------------- 
step 76, time 0.038000, maxvel 30.000000, total vol 183256, vol(u>maxvel) 6.60225, cell count 857209
bounding box (containing cells with vel>maxvel): xmin -12.269 -1.77018 -0.503097, xmax 0.57068 1.77016 3.95511m 
bounding box of vehicle: xmin -12.2 -1.30048 -6.45439e-18, xmax 6.48827e-18 1.30048 3.6m 
gts area: 163.394 
yplus max: 129.732, yplus min: 0.024449 
position of yplus max: -12.0211 1.28998 2.0049 
yplus prom: 3.03508 
forces: 2871.015086 -0.141760 -885.400954 
Drag coefficient: 0.800962 
torque (ref. CG): 0.198464 (roll) -1381.524698 (pitch) 0.864735 (yaw) 
----------------------------------------------------- 
step 77, time 0.038500, maxvel 30.000000, total vol 183256, vol(u>maxvel) 6.59364, cell count 851983
bounding box (containing cells with vel>maxvel): xmin -12.269 -1.77018 -0.503097, xmax 0.570751 1.77016 3.9551m 
bounding box of vehicle: xmin -12.2 -1.30048 -6.45439e-18, xmax 6.48827e-18 1.30048 3.6m 
gts area: 163.394 
yplus max: 129.727, yplus min: 0.0244251 
position of yplus max: -12.0211 1.28998 2.0049 
yplus prom: 3.03462 
forces: 2865.683408 -0.152812 -885.159247 
Drag coefficient: 0.799475 
torque (ref. CG): 0.213936 (roll) -1387.514638 (pitch) 0.932151 (yaw) 
----------------------------------------------------- 
step 78, time 0.039000, maxvel 30.000000, total vol 183256, vol(u>maxvel) 6.58469, cell count 846872
bounding box (containing cells with vel>maxvel): xmin -12.269 -1.77018 -0.503097, xmax 0.570751 1.77016 3.9551m 
bounding box of vehicle: xmin -12.2 -1.30048 -6.45439e-18, xmax 6.48827e-18 1.30048 3.6m 
gts area: 163.394 
yplus max: 129.723, yplus min: 0.0244283 
position of yplus max: -12.0211 1.28998 2.0049 
yplus prom: 3.03413 
forces: 2860.398917 -0.153372 -884.811031 
Drag coefficient: 0.798001 
torque (ref. CG): 0.214721 (roll) -1392.788806 (pitch) 0.935571 (yaw) 
----------------------------------------------------- 
step 79, time 0.039500, maxvel 30.000000, total vol 183256, vol(u>maxvel) 6.57901, cell count 841850
bounding box (containing cells with vel>maxvel): xmin -12.269 -1.77018 -0.503097, xmax 0.570821 1.76998 3.9551m 
bounding box of vehicle: xmin -12.2 -1.30048 -6.45439e-18, xmax 6.48827e-18 1.30048 3.6m 
gts area: 163.394 
yplus max: 129.718, yplus min: 0.0244716 
position of yplus max: -12.0211 1.28998 2.0049 
yplus prom: 3.03363 
forces: 2855.093457 -0.160019 -884.485248 
Drag coefficient: 0.796520 
torque (ref. CG): 0.224027 (roll) -1398.229171 (pitch) 0.976118 (yaw) 
----------------------------------------------------- 
step 80, time 0.040000, maxvel 30.000000, total vol 183256, vol(u>maxvel) 6.55487, cell count 836669
bounding box (containing cells with vel>maxvel): xmin -12.269 -1.77007 -0.503097, xmax 0.570821 1.76998 3.9551m 
bounding box of vehicle: xmin -12.2 -1.30048 -6.45439e-18, xmax 6.48827e-18 1.30048 3.6m 
gts area: 163.394 
yplus max: 129.714, yplus min: 0.0245351 
position of yplus max: -12.0211 1.28998 2.0049 
yplus prom: 3.03311 
forces: 2849.846528 -0.155237 -884.172178 
Drag coefficient: 0.795057 
torque (ref. CG): 0.217332 (roll) -1403.665146 (pitch) 0.946948 (yaw) 
----------------------------------------------------- 
step 81, time 0.040500, maxvel 30.000000, total vol 183256, vol(u>maxvel) 6.53306, cell count 831822
bounding box (containing cells with vel>maxvel): xmin -12.269 -1.77007 -0.503097, xmax 0.570885 1.76998 3.9551m 
bounding box of vehicle: xmin -12.2 -1.30048 -6.45439e-18, xmax 6.48827e-18 1.30048 3.6m 
gts area: 163.394 
yplus max: 129.71, yplus min: 0.0246176 
position of yplus max: -12.0211 1.28998 2.0049 
yplus prom: 3.03256 
forces: 2844.627747 -0.165960 -883.845608 
Drag coefficient: 0.793601 
torque (ref. CG): 0.232344 (roll) -1408.979359 (pitch) 1.012355 (yaw) 
----------------------------------------------------- 
step 82, time 0.041000, maxvel 30.000000, total vol 183256, vol(u>maxvel) 6.5136, cell count 826631
bounding box (containing cells with vel>maxvel): xmin -12.269 -1.77007 -0.503097, xmax 0.570885 1.76998 3.9551m 
bounding box of vehicle: xmin -12.2 -1.30048 -6.45439e-18, xmax 6.48827e-18 1.30048 3.6m 
gts area: 163.394 
yplus max: 129.706, yplus min: 0.0247311 
position of yplus max: -12.0211 1.28998 2.0049 
yplus prom: 3.032 
forces: 2839.414216 -0.153884 -883.544405 
Drag coefficient: 0.792146 
torque (ref. CG): 0.215438 (roll) -1414.440969 (pitch) 0.938693 (yaw) 
----------------------------------------------------- 
step 83, time 0.041500, maxvel 30.000000, total vol 183256, vol(u>maxvel) 6.49122, cell count 821751
bounding box (containing cells with vel>maxvel): xmin -12.269 -1.77007 -0.503097, xmax 0.570885 1.76998 3.9551m 
bounding box of vehicle: xmin -12.2 -1.30048 -6.45439e-18, xmax 6.48827e-18 1.30048 3.6m 
gts area: 163.394 
yplus max: 129.702, yplus min: 0.0184174 
position of yplus max: -12.0211 1.28998 2.0049 
yplus prom: 3.03141 
forces: 2834.279579 -0.158052 -883.249219 
Drag coefficient: 0.790714 
torque (ref. CG): 0.221273 (roll) -1419.828827 (pitch) 0.964116 (yaw) 
----------------------------------------------------- 
step 84, time 0.042000, maxvel 30.000000, total vol 183256, vol(u>maxvel) 6.46602, cell count 817076
bounding box (containing cells with vel>maxvel): xmin -12.269 -1.77007 -0.503097, xmax 0.570885 1.76998 3.95367m 
bounding box of vehicle: xmin -12.2 -1.30048 -6.45439e-18, xmax 6.48827e-18 1.30048 3.6m 
gts area: 163.394 
yplus max: 129.698, yplus min: 0.0250505 
position of yplus max: -12.0211 1.28998 2.0049 
yplus prom: 3.03081 
forces: 2829.198048 -0.161574 -882.870663 
Drag coefficient: 0.789296 
torque (ref. CG): 0.226204 (roll) -1424.633775 (pitch) 0.985603 (yaw) 
----------------------------------------------------- 
step 85, time 0.042500, maxvel 30.000000, total vol 183256, vol(u>maxvel) 6.44165, cell count 812747
bounding box (containing cells with vel>maxvel): xmin -12.269 -1.77007 -0.503097, xmax 0.570947 1.76998 3.95367m 
bounding box of vehicle: xmin -12.2 -1.30048 -6.45439e-18, xmax 6.48827e-18 1.30048 3.6m 
gts area: 163.394 
yplus max: 129.694, yplus min: 0.0252541 
position of yplus max: -12.0211 1.28998 2.0049 
yplus prom: 3.03018 
forces: 2824.123069 -0.163775 -882.552225 
Drag coefficient: 0.787880 
torque (ref. CG): 0.229285 (roll) -1429.796278 (pitch) 0.999025 (yaw) 
----------------------------------------------------- 
step 86, time 0.043000, maxvel 30.000000, total vol 183256, vol(u>maxvel) 6.42925, cell count 808311
bounding box (containing cells with vel>maxvel): xmin -12.269 -1.77007 -0.503097, xmax 0.644675 1.76998 3.95367m 
bounding box of vehicle: xmin -12.2 -1.30048 -6.45439e-18, xmax 6.48827e-18 1.30048 3.6m 
gts area: 163.394 
yplus max: 129.691, yplus min: 0.0254795 
position of yplus max: -12.0211 1.28998 2.0049 
yplus prom: 3.02954 
forces: 2819.055189 -0.161461 -882.207699 
Drag coefficient: 0.786466 
torque (ref. CG): 0.226045 (roll) -1434.789698 (pitch) 0.984911 (yaw) 
----------------------------------------------------- 
step 87, time 0.043500, maxvel 30.000000, total vol 183256, vol(u>maxvel) 6.42283, cell count 804650
bounding box (containing cells with vel>maxvel): xmin -12.269 -1.77007 -0.503097, xmax 0.645073 1.76977 3.95367m 
bounding box of vehicle: xmin -12.2 -1.30048 -6.45439e-18, xmax 6.48827e-18 1.30048 3.6m 
gts area: 163.394 
yplus max: 129.687, yplus min: 0.0257292 
position of yplus max: -12.0211 1.28998 2.0049 
yplus prom: 3.02888 
forces: 2813.945286 -0.160726 -881.869253 
Drag coefficient: 0.785041 
torque (ref. CG): 0.225016 (roll) -1439.879043 (pitch) 0.980428 (yaw) 
----------------------------------------------------- 
step 88, time 0.044000, maxvel 30.000000, total vol 183256, vol(u>maxvel) 6.40247, cell count 801132
bounding box (containing cells with vel>maxvel): xmin -12.269 -1.76992 -0.503097, xmax 0.645306 1.76977 3.95367m 
bounding box of vehicle: xmin -12.2 -1.30048 -6.45439e-18, xmax 6.48827e-18 1.30048 3.6m 
gts area: 163.394 
yplus max: 129.684, yplus min: 0.0259984 
position of yplus max: -12.0211 1.28998 2.0049 
yplus prom: 3.0282 
forces: 2808.876752 -0.162467 -881.516816 
Drag coefficient: 0.783627 
torque (ref. CG): 0.227454 (roll) -1444.825127 (pitch) 0.991048 (yaw) 
----------------------------------------------------- 
step 89, time 0.044500, maxvel 30.000000, total vol 183256, vol(u>maxvel) 6.39155, cell count 797537
bounding box (containing cells with vel>maxvel): xmin -12.269 -1.76992 -0.503097, xmax 0.645414 1.76977 3.95367m 
bounding box of vehicle: xmin -12.2 -1.30048 -6.45439e-18, xmax 6.48827e-18 1.30048 3.6m 
gts area: 163.394 
yplus max: 129.68, yplus min: 0.0262858 
position of yplus max: -12.0211 1.28998 2.0049 
yplus prom: 3.0275 
forces: 2803.819306 -0.163368 -881.150770 
Drag coefficient: 0.782216 
torque (ref. CG): 0.228715 (roll) -1449.672667 (pitch) 0.996543 (yaw) 
----------------------------------------------------- 
step 90, time 0.045000, maxvel 30.000000, total vol 183256, vol(u>maxvel) 6.38579, cell count 794099
bounding box (containing cells with vel>maxvel): xmin -12.269 -1.76992 -0.503097, xmax 0.645414 1.76977 3.95367m 
bounding box of vehicle: xmin -12.2 -1.30048 -6.45439e-18, xmax 6.48827e-18 1.30048 3.6m 
gts area: 163.394 
yplus max: 129.677, yplus min: 0.0265897 
position of yplus max: -12.0211 1.28998 2.0049 
yplus prom: 3.02678 
forces: 2798.761345 -0.163853 -880.780183 
Drag coefficient: 0.780805 
torque (ref. CG): 0.229394 (roll) -1454.493234 (pitch) 0.999503 (yaw) 
----------------------------------------------------- 
step 91, time 0.045500, maxvel 30.000000, total vol 183256, vol(u>maxvel) 6.36587, cell count 790752
bounding box (containing cells with vel>maxvel): xmin -12.269 -1.76992 -0.503097, xmax 0.645516 1.76977 3.95367m 
bounding box of vehicle: xmin -12.2 -1.30048 -6.45439e-18, xmax 6.48827e-18 1.30048 3.6m 
gts area: 163.394 
yplus max: 129.674, yplus min: 0.0269071 
position of yplus max: -12.0211 1.28998 2.0049 
yplus prom: 3.02606 
forces: 2793.683099 -0.160389 -880.394650 
Drag coefficient: 0.779388 
torque (ref. CG): 0.224545 (roll) -1459.251029 (pitch) 0.978373 (yaw) 
----------------------------------------------------- 
step 92, time 0.046000, maxvel 30.000000, total vol 183256, vol(u>maxvel) 6.36349, cell count 787446
bounding box (containing cells with vel>maxvel): xmin -12.269 -1.76992 -0.503097, xmax 0.645612 1.76977 3.95367m 
bounding box of vehicle: xmin -12.2 -1.30048 -6.45439e-18, xmax 6.48827e-18 1.30048 3.6m 
gts area: 163.394 
yplus max: 129.671, yplus min: 0.0272384 
position of yplus max: -12.0211 1.28998 2.0049 
yplus prom: 3.02532 
forces: 2788.584443 -0.163706 -880.022305 
Drag coefficient: 0.777966 
torque (ref. CG): 0.229188 (roll) -1464.117843 (pitch) 0.998604 (yaw) 
----------------------------------------------------- 
step 93, time 0.046500, maxvel 30.000000, total vol 183256, vol(u>maxvel) 6.35834, cell count 783879
bounding box (containing cells with vel>maxvel): xmin -12.269 -1.76992 -0.503097, xmax 0.645612 1.76977 3.95367m 
bounding box of vehicle: xmin -12.2 -1.30048 -6.45439e-18, xmax 6.48827e-18 1.30048 3.6m 
gts area: 163.394 
yplus max: 129.668, yplus min: 0.027579 
position of yplus max: -12.0211 1.28998 2.0049 
yplus prom: 3.02457 
forces: 2783.462670 -0.162197 -879.631618 
Drag coefficient: 0.776537 
torque (ref. CG): 0.227076 (roll) -1468.905131 (pitch) 0.989403 (yaw) 
----------------------------------------------------- 
step 94, time 0.047000, maxvel 30.000000, total vol 183256, vol(u>maxvel) 6.34667, cell count 780547
bounding box (containing cells with vel>maxvel): xmin -12.269 -1.76974 -0.503097, xmax 0.645703 1.76954 3.95367m 
bounding box of vehicle: xmin -12.2 -1.30048 -6.45439e-18, xmax 6.48827e-18 1.30048 3.6m 
gts area: 163.394 
yplus max: 129.665, yplus min: 0.0267234 
position of yplus max: -12.0211 1.28998 2.0049 
yplus prom: 3.02382 
forces: 2778.330814 -0.160107 -879.246796 
Drag coefficient: 0.775105 
torque (ref. CG): 0.224150 (roll) -1473.742315 (pitch) 0.976655 (yaw) 
----------------------------------------------------- 
step 95, time 0.047500, maxvel 30.000000, total vol 183256, vol(u>maxvel) 6.3184, cell count 777277
bounding box (containing cells with vel>maxvel): xmin -12.269 -1.76974 -0.503097, xmax 0.645703 1.76954 3.95367m 
bounding box of vehicle: xmin -12.2 -1.30048 -6.45439e-18, xmax 6.48827e-18 1.30048 3.6m 
gts area: 163.394 
yplus max: 129.662, yplus min: 0.0282859 
position of yplus max: -12.0211 1.28998 2.0049 
yplus prom: 3.02306 
forces: 2773.254636 -0.160426 -878.859246 
Drag coefficient: 0.773689 
torque (ref. CG): 0.224596 (roll) -1478.484912 (pitch) 0.978596 (yaw) 
----------------------------------------------------- 
step 96, time 0.048000, maxvel 30.000000, total vol 183256, vol(u>maxvel) 6.29682, cell count 773917
bounding box (containing cells with vel>maxvel): xmin -12.269 -1.76974 -0.503097, xmax 0.645703 1.76954 3.95367m 
bounding box of vehicle: xmin -12.2 -1.30048 -6.45439e-18, xmax 6.48827e-18 1.30048 3.6m 
gts area: 163.394 
yplus max: 129.659, yplus min: 0.0286514 
position of yplus max: -12.0211 1.28998 2.0049 
yplus prom: 3.02229 
forces: 2768.209683 -0.161328 -878.478036 
Drag coefficient: 0.772281 
torque (ref. CG): 0.225859 (roll) -1483.222462 (pitch) 0.984101 (yaw) 
----------------------------------------------------- 
step 97, time 0.048500, maxvel 30.000000, total vol 183256, vol(u>maxvel) 6.279, cell count 770733
bounding box (containing cells with vel>maxvel): xmin -12.269 -1.69593 -0.503097, xmax 0.645789 1.76954 3.95367m 
bounding box of vehicle: xmin -12.2 -1.30048 -6.45439e-18, xmax 6.48827e-18 1.30048 3.6m 
gts area: 163.394 
yplus max: 129.656, yplus min: 0.0290198 
position of yplus max: -12.0211 1.28998 2.0049 
yplus prom: 3.02151 
forces: 2763.215481 -0.161381 -878.101593 
Drag coefficient: 0.770888 
torque (ref. CG): 0.225934 (roll) -1487.918043 (pitch) 0.984427 (yaw) 
----------------------------------------------------- 
step 98, time 0.049000, maxvel 30.000000, total vol 183256, vol(u>maxvel) 6.26511, cell count 767600
bounding box (containing cells with vel>maxvel): xmin -12.269 -1.69593 -0.503097, xmax 0.645789 1.69586 3.95316m 
bounding box of vehicle: xmin -12.2 -1.30048 -6.45439e-18, xmax 6.48827e-18 1.30048 3.6m 
gts area: 163.394 
yplus max: 129.654, yplus min: 0.029394 
position of yplus max: -12.0211 1.28998 2.0049 
yplus prom: 3.02073 
forces: 2758.211123 -0.161387 -877.724826 
Drag coefficient: 0.769492 
torque (ref. CG): 0.225942 (roll) -1492.625869 (pitch) 0.984462 (yaw) 
----------------------------------------------------- 
step 99, time 0.049500, maxvel 30.000000, total vol 183256, vol(u>maxvel) 6.25445, cell count 764484
bounding box (containing cells with vel>maxvel): xmin -12.269 -1.69585 -0.503097, xmax 0.645789 1.69586 3.95316m 
bounding box of vehicle: xmin -12.2 -1.30048 -6.45439e-18, xmax 6.48827e-18 1.30048 3.6m 
gts area: 163.394 
yplus max: 129.651, yplus min: 0.0249289 
position of yplus max: -12.0211 1.28998 2.0049 
yplus prom: 3.01994 
forces: 2753.210389 -0.160088 -877.352006 
Drag coefficient: 0.768097 
torque (ref. CG): 0.224124 (roll) -1497.352692 (pitch) 0.976539 (yaw) 
----------------------------------------------------- 
step 100, time 0.050000, maxvel 30.000000, total vol 183256, vol(u>maxvel) 6.23771, cell count 761291
bounding box (containing cells with vel>maxvel): xmin -12.269 -1.69585 -0.503097, xmax 0.64587 1.69586 3.95316m 
bounding box of vehicle: xmin -12.2 -1.30048 -6.45439e-18, xmax 6.48827e-18 1.30048 3.6m 
gts area: 163.394 
yplus max: 129.648, yplus min: 0.0301512 
position of yplus max: -12.0211 1.28998 2.0049 
yplus prom: 3.01915 
forces: 2748.188397 -0.159236 -876.990551 
Drag coefficient: 0.766696 
torque (ref. CG): 0.222930 (roll) -1502.178603 (pitch) 0.971339 (yaw) 
----------------------------------------------------- 
step 101, time 0.050500, maxvel 30.000000, total vol 183256, vol(u>maxvel) 6.2192, cell count 757871
bounding box (containing cells with vel>maxvel): xmin -12.269 -1.69585 -0.503097, xmax 0.64587 1.69583 3.95316m 
bounding box of vehicle: xmin -12.2 -1.30048 -6.45439e-18, xmax 6.48827e-18 1.30048 3.6m 
gts area: 163.394 
yplus max: 129.646, yplus min: 0.0305309 
position of yplus max: -12.0211 1.28998 2.0049 
yplus prom: 3.01835 
forces: 2743.177436 -0.158911 -876.624971 
Drag coefficient: 0.765298 
torque (ref. CG): 0.222476 (roll) -1506.963915 (pitch) 0.969358 (yaw) 
----------------------------------------------------- 
step 102, time 0.051000, maxvel 30.000000, total vol 183256, vol(u>maxvel) 6.20205, cell count 754325
bounding box (containing cells with vel>maxvel): xmin -12.269 -1.69585 -0.503097, xmax 0.64587 1.69583 3.95316m 
bounding box of vehicle: xmin -12.2 -1.30048 -6.45439e-18, xmax 6.48827e-18 1.30048 3.6m 
gts area: 163.394 
yplus max: 129.643, yplus min: 0.0309134 
position of yplus max: -12.0211 1.28998 2.0049 
yplus prom: 3.01755 
forces: 2738.191078 -0.158614 -876.250123 
Drag coefficient: 0.763907 
torque (ref. CG): 0.222059 (roll) -1511.658241 (pitch) 0.967543 (yaw) 
----------------------------------------------------- 
step 103, time 0.051500, maxvel 30.000000, total vol 183256, vol(u>maxvel) 6.1845, cell count 751234
bounding box (containing cells with vel>maxvel): xmin -12.269 -1.69585 -0.503097, xmax 0.64587 1.69583 3.95304m 
bounding box of vehicle: xmin -12.2 -1.30048 -6.45439e-18, xmax 6.48827e-18 1.30048 3.6m 
gts area: 163.394 
yplus max: 129.641, yplus min: 0.031297 
position of yplus max: -12.0211 1.28998 2.0049 
yplus prom: 3.01674 
forces: 2733.259689 -0.160702 -875.894928 
Drag coefficient: 0.762531 
torque (ref. CG): 0.224982 (roll) -1516.395496 (pitch) 0.980281 (yaw) 
----------------------------------------------------- 
step 104, time 0.052000, maxvel 30.000000, total vol 183256, vol(u>maxvel) 6.17438, cell count 748168
bounding box (containing cells with vel>maxvel): xmin -12.269 -1.69585 -0.503097, xmax 0.719589 1.69583 3.95304m 
bounding box of vehicle: xmin -12.2 -1.30048 -6.45439e-18, xmax 6.48827e-18 1.30048 3.6m 
gts area: 163.394 
yplus max: 129.638, yplus min: 0.0311571 
position of yplus max: -12.0211 1.28998 2.0049 
yplus prom: 3.01593 
forces: 2728.367411 -0.156098 -875.517131 
Drag coefficient: 0.761166 
torque (ref. CG): 0.218537 (roll) -1520.940124 (pitch) 0.952197 (yaw) 
----------------------------------------------------- 
step 105, time 0.052500, maxvel 30.000000, total vol 183256, vol(u>maxvel) 6.15653, cell count 745118
bounding box (containing cells with vel>maxvel): xmin -12.269 -1.69585 -0.503097, xmax 0.719728 1.69583 3.95304m 
bounding box of vehicle: xmin -12.2 -1.30048 -6.45439e-18, xmax 6.48827e-18 1.30048 3.6m 
gts area: 163.394 
yplus max: 129.636, yplus min: 0.0306742 
position of yplus max: -12.0211 1.28998 2.0049 
yplus prom: 3.01512 
forces: 2723.522520 -0.157969 -875.163367 
Drag coefficient: 0.759815 
torque (ref. CG): 0.221157 (roll) -1525.565009 (pitch) 0.963613 (yaw) 
----------------------------------------------------- 
step 106, time 0.053000, maxvel 30.000000, total vol 183256, vol(u>maxvel) 6.12047, cell count 741791
bounding box (containing cells with vel>maxvel): xmin -12.269 -1.69585 -0.503097, xmax 0.71986 1.69583 3.88162m 
bounding box of vehicle: xmin -12.2 -1.30048 -6.45439e-18, xmax 6.48827e-18 1.30048 3.6m 
gts area: 163.394 
yplus max: 129.634, yplus min: 0.0302507 
position of yplus max: -12.0211 1.28998 2.0049 
yplus prom: 3.01431 
forces: 2718.708091 -0.156843 -874.798893 
Drag coefficient: 0.758471 
torque (ref. CG): 0.219580 (roll) -1530.081917 (pitch) 0.956740 (yaw) 
----------------------------------------------------- 
step 107, time 0.053500, maxvel 30.000000, total vol 183256, vol(u>maxvel) 6.10681, cell count 738904
bounding box (containing cells with vel>maxvel): xmin -12.269 -1.69585 -0.503097, xmax 0.719984 1.69583 3.88162m 
bounding box of vehicle: xmin -12.2 -1.30048 -6.45439e-18, xmax 6.48827e-18 1.30048 3.6m 
gts area: 163.394 
yplus max: 129.631, yplus min: 0.0298962 
position of yplus max: -12.0211 1.28998 2.0049 
yplus prom: 3.01349 
forces: 2713.912739 -0.157486 -874.434023 
Drag coefficient: 0.757134 
torque (ref. CG): 0.220481 (roll) -1534.569704 (pitch) 0.960665 (yaw) 
----------------------------------------------------- 
step 108, time 0.054000, maxvel 30.000000, total vol 183256, vol(u>maxvel) 6.09079, cell count 735951
bounding box (containing cells with vel>maxvel): xmin -12.269 -1.69585 -0.503097, xmax 0.720103 1.69583 3.88159m 
bounding box of vehicle: xmin -12.2 -1.30048 -6.45439e-18, xmax 6.48827e-18 1.30048 3.6m 
gts area: 163.394 
yplus max: 129.629, yplus min: 0.02962 
position of yplus max: -12.0211 1.28998 2.0049 
yplus prom: 3.01266 
forces: 2709.128761 -0.157640 -874.065172 
Drag coefficient: 0.755799 
torque (ref. CG): 0.220696 (roll) -1539.017286 (pitch) 0.961605 (yaw) 
----------------------------------------------------- 
step 109, time 0.054500, maxvel 30.000000, total vol 183256, vol(u>maxvel) 6.07476, cell count 733097
bounding box (containing cells with vel>maxvel): xmin -12.269 -1.69585 -0.503097, xmax 0.720103 1.69583 3.88159m 
bounding box of vehicle: xmin -12.2 -1.30048 -6.45439e-18, xmax 6.48827e-18 1.30048 3.6m 
gts area: 163.394 
yplus max: 129.627, yplus min: 0.0294269 
position of yplus max: -12.0211 1.28998 2.0049 
yplus prom: 3.01184 
forces: 2704.371292 -0.157035 -873.687627 
Drag coefficient: 0.754472 
torque (ref. CG): 0.219849 (roll) -1543.374715 (pitch) 0.957913 (yaw) 
----------------------------------------------------- 
step 110, time 0.055000, maxvel 30.000000, total vol 183256, vol(u>maxvel) 6.05519, cell count 730418
bounding box (containing cells with vel>maxvel): xmin -12.269 -1.69585 -0.503097, xmax 0.720214 1.69583 3.88159m 
bounding box of vehicle: xmin -12.2 -1.30048 -6.45439e-18, xmax 6.48827e-18 1.30048 3.6m 
gts area: 163.394 
yplus max: 129.625, yplus min: 0.0293241 
position of yplus max: -12.0211 1.28998 2.0049 
yplus prom: 3.011 
forces: 2699.616383 -0.155185 -873.306209 
Drag coefficient: 0.753145 
torque (ref. CG): 0.217258 (roll) -1547.704935 (pitch) 0.946626 (yaw) 
----------------------------------------------------- 
step 111, time 0.055500, maxvel 30.000000, total vol 183256, vol(u>maxvel) 6.03702, cell count 727471
bounding box (containing cells with vel>maxvel): xmin -12.269 -1.69585 -0.503097, xmax 0.720214 1.69583 3.88159m 
bounding box of vehicle: xmin -12.2 -1.30048 -6.45439e-18, xmax 6.48827e-18 1.30048 3.6m 
gts area: 163.394 
yplus max: 129.623, yplus min: 0.0293158 
position of yplus max: -12.0211 1.28998 2.0049 
yplus prom: 3.01017 
forces: 2694.840254 -0.154760 -872.930753 
Drag coefficient: 0.751813 
torque (ref. CG): 0.216664 (roll) -1552.101239 (pitch) 0.944035 (yaw) 
----------------------------------------------------- 
step 112, time 0.056000, maxvel 30.000000, total vol 183256, vol(u>maxvel) 6.02377, cell count 724720
bounding box (containing cells with vel>maxvel): xmin -12.269 -1.69585 -0.503097, xmax 0.720214 1.69583 3.88159m 
bounding box of vehicle: xmin -12.2 -1.30048 -6.45439e-18, xmax 6.48827e-18 1.30048 3.6m 
gts area: 163.394 
yplus max: 129.621, yplus min: 0.0294006 
position of yplus max: -12.0211 1.28998 2.0049 
yplus prom: 3.00932 
forces: 2690.066121 -0.155038 -872.559810 
Drag coefficient: 0.750481 
torque (ref. CG): 0.217054 (roll) -1556.522272 (pitch) 0.945734 (yaw) 
----------------------------------------------------- 
step 113, time 0.056500, maxvel 30.000000, total vol 183256, vol(u>maxvel) 6.0101, cell count 722110
bounding box (containing cells with vel>maxvel): xmin -12.269 -1.69585 -0.503097, xmax 0.72032 1.69583 3.88159m 
bounding box of vehicle: xmin -12.2 -1.30048 -6.45439e-18, xmax 6.48827e-18 1.30048 3.6m 
gts area: 163.394 
yplus max: 129.618, yplus min: 0.0295764 
position of yplus max: -12.0211 1.28998 2.0049 
yplus prom: 3.00848 
forces: 2685.291763 -0.153427 -872.175700 
Drag coefficient: 0.749149 
torque (ref. CG): 0.214798 (roll) -1560.863300 (pitch) 0.935906 (yaw) 
----------------------------------------------------- 
step 114, time 0.057000, maxvel 30.000000, total vol 183256, vol(u>maxvel) 5.99951, cell count 719274
bounding box (containing cells with vel>maxvel): xmin -12.269 -1.69585 -0.503097, xmax 0.72032 1.69583 3.88159m 
bounding box of vehicle: xmin -12.2 -1.30048 -6.45439e-18, xmax 6.48827e-18 1.30048 3.6m 
gts area: 163.394 
yplus max: 129.616, yplus min: 0.0298135 
position of yplus max: -12.0211 1.28998 2.0049 
yplus prom: 3.00763 
forces: 2680.542403 -0.152917 -871.794722 
Drag coefficient: 0.747824 
torque (ref. CG): 0.214083 (roll) -1565.188439 (pitch) 0.932791 (yaw) 
----------------------------------------------------- 
step 115, time 0.057500, maxvel 30.000000, total vol 183256, vol(u>maxvel) 5.98291, cell count 716590
bounding box (containing cells with vel>maxvel): xmin -12.269 -1.69585 -0.503097, xmax 0.72032 1.69583 3.88159m 
bounding box of vehicle: xmin -12.2 -1.30048 -6.45439e-18, xmax 6.48827e-18 1.30048 3.6m 
gts area: 163.394 
yplus max: 129.614, yplus min: 0.0301255 
position of yplus max: -12.0211 1.28998 2.0049 
yplus prom: 3.00677 
forces: 2675.803638 -0.152533 -871.407747 
Drag coefficient: 0.746502 
torque (ref. CG): 0.213547 (roll) -1569.462164 (pitch) 0.930453 (yaw) 
----------------------------------------------------- 
step 116, time 0.058000, maxvel 30.000000, total vol 183256, vol(u>maxvel) 5.9552, cell count 713991
bounding box (containing cells with vel>maxvel): xmin -12.269 -1.69585 -0.503097, xmax 0.720422 1.69583 3.88159m 
bounding box of vehicle: xmin -12.2 -1.30048 -6.45439e-18, xmax 6.48827e-18 1.30048 3.6m 
gts area: 163.394 
yplus max: 129.612, yplus min: 0.03051 
position of yplus max: -12.0211 1.28998 2.0049 
yplus prom: 3.00592 
forces: 2671.081701 -0.151621 -871.028335 
Drag coefficient: 0.745184 
torque (ref. CG): 0.212269 (roll) -1573.758461 (pitch) 0.924885 (yaw) 
----------------------------------------------------- 
step 117, time 0.058500, maxvel 30.000000, total vol 183256, vol(u>maxvel) 5.93546, cell count 711274
bounding box (containing cells with vel>maxvel): xmin -12.269 -1.69585 -0.503097, xmax 0.720422 1.69583 3.88159m 
bounding box of vehicle: xmin -12.2 -1.30048 -6.45439e-18, xmax 6.48827e-18 1.30048 3.6m 
gts area: 163.394 
yplus max: 129.611, yplus min: 0.0309628 
position of yplus max: -12.0211 1.28998 2.0049 
yplus prom: 3.00506 
forces: 2666.366206 -0.151632 -870.642473 
Drag coefficient: 0.743869 
torque (ref. CG): 0.212285 (roll) -1578.006395 (pitch) 0.924957 (yaw) 
----------------------------------------------------- 
step 118, time 0.059000, maxvel 30.000000, total vol 183256, vol(u>maxvel) 5.91626, cell count 708656
bounding box (containing cells with vel>maxvel): xmin -12.269 -1.69585 -0.503097, xmax 0.720422 1.69583 3.88159m 
bounding box of vehicle: xmin -12.2 -1.30048 -6.45439e-18, xmax 6.48827e-18 1.30048 3.6m 
gts area: 163.394 
yplus max: 129.609, yplus min: 0.031474 
position of yplus max: -12.0211 1.28998 2.0049 
yplus prom: 3.00419 
forces: 2661.649660 -0.151482 -870.266604 
Drag coefficient: 0.742553 
torque (ref. CG): 0.212074 (roll) -1582.316762 (pitch) 0.924038 (yaw) 
----------------------------------------------------- 
step 119, time 0.059500, maxvel 30.000000, total vol 183256, vol(u>maxvel) 5.90087, cell count 705951
bounding box (containing cells with vel>maxvel): xmin -12.269 -1.69585 -0.503097, xmax 0.720422 1.69583 3.88159m 
bounding box of vehicle: xmin -12.2 -1.30048 -6.45439e-18, xmax 6.48827e-18 1.30048 3.6m 
gts area: 163.394 
yplus max: 129.607, yplus min: 0.0320328 
position of yplus max: -12.0211 1.28998 2.0049 
yplus prom: 3.00332 
forces: 2656.950946 -0.150864 -869.873967 
Drag coefficient: 0.741242 
torque (ref. CG): 0.211209 (roll) -1586.499875 (pitch) 0.920270 (yaw) 
----------------------------------------------------- 
step 120, time 0.060000, maxvel 30.000000, total vol 183256, vol(u>maxvel) 5.89119, cell count 703312
bounding box (containing cells with vel>maxvel): xmin -12.269 -1.69585 -0.503097, xmax 0.720517 1.69583 3.88159m 
bounding box of vehicle: xmin -12.2 -1.30048 -6.45439e-18, xmax 6.48827e-18 1.30048 3.6m 
gts area: 163.394 
yplus max: 129.605, yplus min: 0.0326338 
position of yplus max: -12.0211 1.28998 2.0049 
yplus prom: 3.00245 
forces: 2652.252110 -0.150358 -869.483237 
Drag coefficient: 0.739931 
torque (ref. CG): 0.210501 (roll) -1590.694788 (pitch) 0.917181 (yaw) 
----------------------------------------------------- 
step 121, time 0.060500, maxvel 30.000000, total vol 183256, vol(u>maxvel) 5.88248, cell count 700655
bounding box (containing cells with vel>maxvel): xmin -12.269 -1.69585 -0.503097, xmax 0.720517 1.69583 3.88159m 
bounding box of vehicle: xmin -12.2 -1.30048 -6.45439e-18, xmax 6.48827e-18 1.30048 3.6m 
gts area: 163.394 
yplus max: 129.603, yplus min: 0.0332682 
position of yplus max: -12.0211 1.28998 2.0049 
yplus prom: 3.00157 
forces: 2647.564187 -0.150213 -869.089926 
Drag coefficient: 0.738623 
torque (ref. CG): 0.210298 (roll) -1594.858687 (pitch) 0.916297 (yaw) 
----------------------------------------------------- 
step 122, time 0.061000, maxvel 30.000000, total vol 183256, vol(u>maxvel) 5.86166, cell count 698034
bounding box (containing cells with vel>maxvel): xmin -12.269 -1.69585 -0.503097, xmax 0.720517 1.69583 3.88159m 
bounding box of vehicle: xmin -12.2 -1.30048 -6.45439e-18, xmax 6.48827e-18 1.30048 3.6m 
gts area: 163.394 
yplus max: 129.601, yplus min: 0.0316974 
position of yplus max: -12.0211 1.28998 2.0049 
yplus prom: 3.00069 
forces: 2642.897169 -0.148951 -868.678603 
Drag coefficient: 0.737321 
torque (ref. CG): 0.208531 (roll) -1598.883442 (pitch) 0.908600 (yaw) 
----------------------------------------------------- 
step 123, time 0.061500, maxvel 30.000000, total vol 183256, vol(u>maxvel) 5.83887, cell count 695375
bounding box (containing cells with vel>maxvel): xmin -12.269 -1.69585 -0.503097, xmax 0.794143 1.69583 3.88159m 
bounding box of vehicle: xmin -12.2 -1.30048 -6.45439e-18, xmax 6.48827e-18 1.30048 3.6m 
gts area: 163.394 
yplus max: 129.599, yplus min: 0.0206841 
position of yplus max: -12.0211 1.28998 2.0049 
yplus prom: 2.99982 
forces: 2638.252808 -0.150360 -868.293884 
Drag coefficient: 0.736026 
torque (ref. CG): 0.210504 (roll) -1603.038761 (pitch) 0.917195 (yaw) 
----------------------------------------------------- 
step 124, time 0.062000, maxvel 30.000000, total vol 183256, vol(u>maxvel) 5.82812, cell count 692838
bounding box (containing cells with vel>maxvel): xmin -12.269 -1.69585 -0.503097, xmax 0.794292 1.69583 3.88159m 
bounding box of vehicle: xmin -12.2 -1.30048 -6.45439e-18, xmax 6.48827e-18 1.30048 3.6m 
gts area: 163.394 
yplus max: 129.598, yplus min: 0.0353112 
position of yplus max: -12.0211 1.28998 2.0049 
yplus prom: 2.99894 
forces: 2633.651114 -0.149787 -867.874751 
Drag coefficient: 0.734742 
torque (ref. CG): 0.209701 (roll) -1606.924421 (pitch) 0.913699 (yaw) 
----------------------------------------------------- 
step 125, time 0.062500, maxvel 30.000000, total vol 183256, vol(u>maxvel) 5.81485, cell count 690184
bounding box (containing cells with vel>maxvel): xmin -12.269 -1.69585 -0.503097, xmax 0.794433 1.69583 3.88159m 
[...]
yplus prom: 2.71814 
forces: 1195.419956 -0.273950 -466.435688 
Drag coefficient: 0.333501 
torque (ref. CG): 0.383530 (roll) -1171.669756 (pitch) 1.671095 (yaw) 
----------------------------------------------------- 
step 1970, time 0.985000, maxvel 30.000000, total vol 183256, vol(u>maxvel) 1.93029, cell count 448242
bounding box (containing cells with vel>maxvel): xmin -12.269 -1.69577 -0.503097, xmax -10.7851 1.69578 3.25683m 
bounding box of vehicle: xmin -12.2 -1.30048 -6.45439e-18, xmax 6.48827e-18 1.30048 3.6m 
gts area: 163.394 
yplus max: 129.253, yplus min: 0.0474287 
position of yplus max: -12.0211 1.28998 2.0049 
yplus prom: 2.71815 
forces: 1195.388573 -0.274401 -466.433027 
Drag coefficient: 0.333492 
torque (ref. CG): 0.384162 (roll) -1171.697462 (pitch) 1.673849 (yaw) 
----------------------------------------------------- 
step 1971, time 0.985500, maxvel 30.000000, total vol 183256, vol(u>maxvel) 1.93029, cell count 448242
bounding box (containing cells with vel>maxvel): xmin -12.269 -1.69577 -0.503097, xmax -10.7851 1.69578 3.25683m 
bounding box of vehicle: xmin -12.2 -1.30048 -6.45439e-18, xmax 6.48827e-18 1.30048 3.6m 
gts area: 163.394 
yplus max: 129.253, yplus min: 0.0473851 
position of yplus max: -12.0211 1.28998 2.0049 
yplus prom: 2.71817 
forces: 1195.358210 -0.274558 -466.431708 
Drag coefficient: 0.333484 
torque (ref. CG): 0.384381 (roll) -1171.731924 (pitch) 1.674803 (yaw) 
----------------------------------------------------- 
step 1972, time 0.986000, maxvel 30.000000, total vol 183256, vol(u>maxvel) 1.93029, cell count 448244
bounding box (containing cells with vel>maxvel): xmin -12.269 -1.69577 -0.503097, xmax -10.7851 1.69578 3.25683m 
bounding box of vehicle: xmin -12.2 -1.30048 -6.45439e-18, xmax 6.48827e-18 1.30048 3.6m 
gts area: 163.394 
yplus max: 129.253, yplus min: 0.0473409 
position of yplus max: -12.0211 1.28998 2.0049 
yplus prom: 2.71818 
forces: 1195.318885 -0.273181 -466.424125 
Drag coefficient: 0.333473 
torque (ref. CG): 0.382453 (roll) -1171.740721 (pitch) 1.666404 (yaw) 
----------------------------------------------------- 
step 1973, time 0.986500, maxvel 30.000000, total vol 183256, vol(u>maxvel) 1.93059, cell count 448245
bounding box (containing cells with vel>maxvel): xmin -12.269 -1.69577 -0.503097, xmax -10.7851 1.69578 3.25683m 
bounding box of vehicle: xmin -12.2 -1.30048 -6.45439e-18, xmax 6.48827e-18 1.30048 3.6m 
gts area: 163.394 
yplus max: 129.253, yplus min: 0.0472966 
position of yplus max: -12.0211 1.28998 2.0049 
yplus prom: 2.7182 
forces: 1195.298258 -0.275511 -466.429020 
Drag coefficient: 0.333467 
torque (ref. CG): 0.385715 (roll) -1171.799463 (pitch) 1.680615 (yaw) 
----------------------------------------------------- 
step 1974, time 0.987000, maxvel 30.000000, total vol 183256, vol(u>maxvel) 1.9306, cell count 448246
bounding box (containing cells with vel>maxvel): xmin -12.269 -1.69577 -0.503097, xmax -10.7851 1.69578 3.25683m 
bounding box of vehicle: xmin -12.2 -1.30048 -6.45439e-18, xmax 6.48827e-18 1.30048 3.6m 
gts area: 163.394 
yplus max: 129.253, yplus min: 0.0472517 
position of yplus max: -12.0211 1.28998 2.0049 
yplus prom: 2.71822 
forces: 1195.266693 -0.276036 -466.428683 
Drag coefficient: 0.333458 
torque (ref. CG): 0.386450 (roll) -1171.841598 (pitch) 1.683818 (yaw) 
----------------------------------------------------- 
step 1975, time 0.987500, maxvel 30.000000, total vol 183256, vol(u>maxvel) 1.9306, cell count 448245
bounding box (containing cells with vel>maxvel): xmin -12.269 -1.69577 -0.503097, xmax -10.7851 1.69578 3.25683m 
bounding box of vehicle: xmin -12.2 -1.30048 -6.45439e-18, xmax 6.48827e-18 1.30048 3.6m 
gts area: 163.394 
yplus max: 129.253, yplus min: 0.047206 
position of yplus max: -12.0211 1.28998 2.0049 
yplus prom: 2.71823 
forces: 1195.233401 -0.276087 -466.429120 
Drag coefficient: 0.333449 
torque (ref. CG): 0.386522 (roll) -1171.890868 (pitch) 1.684130 (yaw) 
----------------------------------------------------- 
step 1976, time 0.988000, maxvel 30.000000, total vol 183256, vol(u>maxvel) 1.9306, cell count 448245
bounding box (containing cells with vel>maxvel): xmin -12.269 -1.69577 -0.503097, xmax -10.7851 1.69578 3.25683m 
bounding box of vehicle: xmin -12.2 -1.30048 -6.45439e-18, xmax 6.48827e-18 1.30048 3.6m 
gts area: 163.394 
yplus max: 129.253, yplus min: 0.0471606 
position of yplus max: -12.0211 1.28998 2.0049 
yplus prom: 2.71825 
forces: 1195.204085 -0.276440 -466.432409 
Drag coefficient: 0.333441 
torque (ref. CG): 0.387017 (roll) -1171.951974 (pitch) 1.686287 (yaw) 
----------------------------------------------------- 
step 1977, time 0.988500, maxvel 30.000000, total vol 183256, vol(u>maxvel) 1.9306, cell count 448245
bounding box (containing cells with vel>maxvel): xmin -12.269 -1.69577 -0.503097, xmax -10.7851 1.69578 3.25683m 
bounding box of vehicle: xmin -12.2 -1.30048 -6.45439e-18, xmax 6.48827e-18 1.30048 3.6m 
gts area: 163.394 
yplus max: 129.253, yplus min: 0.0471143 
position of yplus max: -12.0211 1.28998 2.0049 
yplus prom: 2.71826 
forces: 1195.172624 -0.276519 -466.434506 
Drag coefficient: 0.333432 
torque (ref. CG): 0.387127 (roll) -1172.008813 (pitch) 1.686766 (yaw) 
----------------------------------------------------- 
step 1978, time 0.989000, maxvel 30.000000, total vol 183256, vol(u>maxvel) 1.93062, cell count 448246
bounding box (containing cells with vel>maxvel): xmin -12.269 -1.69577 -0.503097, xmax -10.7851 1.69578 3.25683m 
bounding box of vehicle: xmin -12.2 -1.30048 -6.45439e-18, xmax 6.48827e-18 1.30048 3.6m 
gts area: 163.394 
yplus max: 129.253, yplus min: 0.0470678 
position of yplus max: -12.0211 1.28998 2.0049 
yplus prom: 2.71828 
forces: 1195.142065 -0.276443 -466.435682 
Drag coefficient: 0.333423 
torque (ref. CG): 0.387020 (roll) -1172.058769 (pitch) 1.686301 (yaw) 
----------------------------------------------------- 
step 1979, time 0.989500, maxvel 30.000000, total vol 183256, vol(u>maxvel) 1.93065, cell count 448250
bounding box (containing cells with vel>maxvel): xmin -12.269 -1.69577 -0.503097, xmax -10.7851 1.69578 3.25683m 
bounding box of vehicle: xmin -12.2 -1.30048 -6.45439e-18, xmax 6.48827e-18 1.30048 3.6m 
gts area: 163.394 
yplus max: 129.253, yplus min: 0.0470208 
position of yplus max: -12.0211 1.28998 2.0049 
yplus prom: 2.7183 
forces: 1195.097871 -0.274298 -466.400919 
Drag coefficient: 0.333411 
torque (ref. CG): 0.384017 (roll) -1171.908583 (pitch) 1.673218 (yaw) 
----------------------------------------------------- 
step 1980, time 0.990000, maxvel 30.000000, total vol 183256, vol(u>maxvel) 1.93065, cell count 448250
bounding box (containing cells with vel>maxvel): xmin -12.269 -1.69577 -0.503097, xmax -10.7851 1.69578 3.25683m 
bounding box of vehicle: xmin -12.2 -1.30048 -6.45439e-18, xmax 6.48827e-18 1.30048 3.6m 
gts area: 163.394 
yplus max: 129.253, yplus min: 0.0469734 
position of yplus max: -12.0211 1.28998 2.0049 
yplus prom: 2.71831 
forces: 1195.094524 -0.278419 -466.419667 
Drag coefficient: 0.333410 
torque (ref. CG): 0.389786 (roll) -1172.027635 (pitch) 1.698353 (yaw) 
----------------------------------------------------- 
step 1981, time 0.990500, maxvel 30.000000, total vol 183256, vol(u>maxvel) 1.93065, cell count 448249
bounding box (containing cells with vel>maxvel): xmin -12.269 -1.69577 -0.503097, xmax -10.7851 1.69578 3.25683m 
bounding box of vehicle: xmin -12.2 -1.30048 -6.45439e-18, xmax 6.48827e-18 1.30048 3.6m 
gts area: 163.394 
yplus max: 129.253, yplus min: 0.0469256 
position of yplus max: -12.0211 1.28998 2.0049 
yplus prom: 2.71833 
forces: 1195.072767 -0.279152 -466.432781 
Drag coefficient: 0.333404 
torque (ref. CG): 0.390812 (roll) -1172.138093 (pitch) 1.702825 (yaw) 
----------------------------------------------------- 
step 1982, time 0.991000, maxvel 30.000000, total vol 183256, vol(u>maxvel) 1.93065, cell count 448249
bounding box (containing cells with vel>maxvel): xmin -12.269 -1.69577 -0.503097, xmax -10.7851 1.69578 3.25683m 
bounding box of vehicle: xmin -12.2 -1.30048 -6.45439e-18, xmax 6.48827e-18 1.30048 3.6m 
gts area: 163.394 
yplus max: 129.253, yplus min: 0.0468772 
position of yplus max: -12.0211 1.28998 2.0049 
yplus prom: 2.71834 
forces: 1195.039244 -0.278889 -466.445354 
Drag coefficient: 0.333395 
torque (ref. CG): 0.390445 (roll) -1172.261719 (pitch) 1.701223 (yaw) 
----------------------------------------------------- 
step 1983, time 0.991500, maxvel 30.000000, total vol 183256, vol(u>maxvel) 1.93065, cell count 448250
bounding box (containing cells with vel>maxvel): xmin -12.269 -1.69577 -0.503097, xmax -10.7851 1.69578 3.25683m 
bounding box of vehicle: xmin -12.2 -1.30048 -6.45439e-18, xmax 6.48827e-18 1.30048 3.6m 
gts area: 163.394 
yplus max: 129.253, yplus min: 0.0468287 
position of yplus max: -12.0211 1.28998 2.0049 
yplus prom: 2.71836 
forces: 1195.004393 -0.278967 -466.459883 
Drag coefficient: 0.333385 
torque (ref. CG): 0.390554 (roll) -1172.399138 (pitch) 1.701699 (yaw) 
----------------------------------------------------- 
step 1984, time 0.992000, maxvel 30.000000, total vol 183256, vol(u>maxvel) 1.93065, cell count 448251
bounding box (containing cells with vel>maxvel): xmin -12.269 -1.69577 -0.503097, xmax -10.7851 1.69578 3.25683m 
bounding box of vehicle: xmin -12.2 -1.30048 -6.45439e-18, xmax 6.48827e-18 1.30048 3.6m 
gts area: 163.394 
yplus max: 129.253, yplus min: 0.0467797 
position of yplus max: -12.0211 1.28998 2.0049 
yplus prom: 2.71838 
forces: 1194.965775 -0.277845 -466.471510 
Drag coefficient: 0.333374 
torque (ref. CG): 0.388983 (roll) -1172.524125 (pitch) 1.694852 (yaw) 
----------------------------------------------------- 
step 1985, time 0.992500, maxvel 30.000000, total vol 183256, vol(u>maxvel) 1.93065, cell count 448249
bounding box (containing cells with vel>maxvel): xmin -12.269 -1.69577 -0.503097, xmax -10.7851 1.69578 3.25683m 
bounding box of vehicle: xmin -12.2 -1.30048 -6.45439e-18, xmax 6.48827e-18 1.30048 3.6m 
gts area: 163.394 
yplus max: 129.253, yplus min: 0.0467299 
position of yplus max: -12.0211 1.28998 2.0049 
yplus prom: 2.71839 
forces: 1194.924413 -0.276810 -466.455525 
Drag coefficient: 0.333363 
torque (ref. CG): 0.387534 (roll) -1172.484526 (pitch) 1.688541 (yaw) 
----------------------------------------------------- 
step 1986, time 0.993000, maxvel 30.000000, total vol 183256, vol(u>maxvel) 1.93065, cell count 448249
bounding box (containing cells with vel>maxvel): xmin -12.269 -1.69577 -0.503097, xmax -10.7851 1.69578 3.25683m 
bounding box of vehicle: xmin -12.2 -1.30048 -6.45439e-18, xmax 6.48827e-18 1.30048 3.6m 
gts area: 163.394 
yplus max: 129.253, yplus min: 0.0466805 
position of yplus max: -12.0211 1.28998 2.0049 
yplus prom: 2.71841 
forces: 1194.926599 -0.280472 -466.468716 
Drag coefficient: 0.333363 
torque (ref. CG): 0.392661 (roll) -1172.561926 (pitch) 1.710882 (yaw) 
----------------------------------------------------- 
step 1987, time 0.993500, maxvel 30.000000, total vol 183256, vol(u>maxvel) 1.93071, cell count 448250
bounding box (containing cells with vel>maxvel): xmin -12.269 -1.69577 -0.503097, xmax -10.7851 1.69578 3.25683m 
bounding box of vehicle: xmin -12.2 -1.30048 -6.45439e-18, xmax 6.48827e-18 1.30048 3.6m 
gts area: 163.394 
yplus max: 129.253, yplus min: 0.0466289 
position of yplus max: -12.0211 1.28998 2.0049 
yplus prom: 2.71843 
forces: 1194.908058 -0.280331 -466.477564 
Drag coefficient: 0.333358 
torque (ref. CG): 0.392464 (roll) -1172.641859 (pitch) 1.710020 (yaw) 
----------------------------------------------------- 
step 1988, time 0.994000, maxvel 30.000000, total vol 183256, vol(u>maxvel) 1.93071, cell count 448247
bounding box (containing cells with vel>maxvel): xmin -12.269 -1.69577 -0.503097, xmax -10.7851 1.69578 3.25683m 
bounding box of vehicle: xmin -12.2 -1.30048 -6.45439e-18, xmax 6.48827e-18 1.30048 3.6m 
gts area: 163.394 
yplus max: 129.253, yplus min: 0.0465799 
position of yplus max: -12.0211 1.28998 2.0049 
yplus prom: 2.71844 
forces: 1194.869417 -0.281447 -466.482040 
Drag coefficient: 0.333347 
torque (ref. CG): 0.394026 (roll) -1172.723261 (pitch) 1.716829 (yaw) 
----------------------------------------------------- 
step 1989, time 0.994500, maxvel 30.000000, total vol 183256, vol(u>maxvel) 1.93071, cell count 448245
bounding box (containing cells with vel>maxvel): xmin -12.269 -1.69577 -0.503097, xmax -10.7851 1.69578 3.25683m 
bounding box of vehicle: xmin -12.2 -1.30048 -6.45439e-18, xmax 6.48827e-18 1.30048 3.6m 
gts area: 163.394 
yplus max: 129.253, yplus min: 0.046527 
position of yplus max: -12.0211 1.28998 2.0049 
yplus prom: 2.71846 
forces: 1194.847636 -0.281163 -466.485028 
Drag coefficient: 0.333341 
torque (ref. CG): 0.393629 (roll) -1172.771977 (pitch) 1.715097 (yaw) 
----------------------------------------------------- 
step 1990, time 0.995000, maxvel 30.000000, total vol 183256, vol(u>maxvel) 1.93074, cell count 448248
bounding box (containing cells with vel>maxvel): xmin -12.269 -1.69577 -0.503097, xmax -10.7851 1.69578 3.25683m 
bounding box of vehicle: xmin -12.2 -1.30048 -6.45439e-18, xmax 6.48827e-18 1.30048 3.6m 
gts area: 163.394 
yplus max: 129.253, yplus min: 0.046476 
position of yplus max: -12.0211 1.28998 2.0049 
yplus prom: 2.71848 
forces: 1194.817232 -0.282206 -466.502583 
Drag coefficient: 0.333333 
torque (ref. CG): 0.395088 (roll) -1172.921634 (pitch) 1.721455 (yaw) 
----------------------------------------------------- 
step 1991, time 0.995500, maxvel 30.000000, total vol 183256, vol(u>maxvel) 1.93073, cell count 448245
bounding box (containing cells with vel>maxvel): xmin -12.269 -1.69577 -0.503097, xmax -10.7851 1.69578 3.25683m 
bounding box of vehicle: xmin -12.2 -1.30048 -6.45439e-18, xmax 6.48827e-18 1.30048 3.6m 
gts area: 163.394 
yplus max: 129.253, yplus min: 0.0464236 
position of yplus max: -12.0211 1.28998 2.0049 
yplus prom: 2.71849 
forces: 1194.788260 -0.278641 -466.495712 
Drag coefficient: 0.333325 
torque (ref. CG): 0.390097 (roll) -1172.920281 (pitch) 1.699709 (yaw) 
----------------------------------------------------- 
step 1992, time 0.996000, maxvel 30.000000, total vol 183256, vol(u>maxvel) 1.93073, cell count 448244
bounding box (containing cells with vel>maxvel): xmin -12.269 -1.69577 -0.503097, xmax -10.7851 1.69578 3.25683m 
bounding box of vehicle: xmin -12.2 -1.30048 -6.45439e-18, xmax 6.48827e-18 1.30048 3.6m 
gts area: 163.394 
yplus max: 129.254, yplus min: 0.0463714 
position of yplus max: -12.0211 1.28998 2.0049 
yplus prom: 2.71851 
forces: 1194.771807 -0.281118 -466.511100 
Drag coefficient: 0.333320 
torque (ref. CG): 0.393565 (roll) -1173.037178 (pitch) 1.714820 (yaw) 
----------------------------------------------------- 
step 1993, time 0.996500, maxvel 30.000000, total vol 183256, vol(u>maxvel) 1.93079, cell count 448243
bounding box (containing cells with vel>maxvel): xmin -12.269 -1.69577 -0.503097, xmax -10.7851 1.69578 3.25683m 
bounding box of vehicle: xmin -12.2 -1.30048 -6.45439e-18, xmax 6.48827e-18 1.30048 3.6m 
gts area: 163.394 
yplus max: 129.254, yplus min: 0.0463168 
position of yplus max: -12.0211 1.28998 2.0049 
yplus prom: 2.71853 
forces: 1194.750421 -0.285474 -466.532534 
Drag coefficient: 0.333314 
torque (ref. CG): 0.399664 (roll) -1173.197866 (pitch) 1.741393 (yaw) 
----------------------------------------------------- 
step 1994, time 0.997000, maxvel 30.000000, total vol 183256, vol(u>maxvel) 1.93079, cell count 448241
bounding box (containing cells with vel>maxvel): xmin -12.269 -1.69577 -0.503097, xmax -10.7851 1.69578 3.25683m 
bounding box of vehicle: xmin -12.2 -1.30048 -6.45439e-18, xmax 6.48827e-18 1.30048 3.6m 
gts area: 163.394 
yplus max: 129.254, yplus min: 0.0462673 
position of yplus max: -12.0211 1.28998 2.0049 
yplus prom: 2.71854 
forces: 1194.720317 -0.280583 -466.524544 
Drag coefficient: 0.333306 
torque (ref. CG): 0.392817 (roll) -1173.191276 (pitch) 1.711558 (yaw) 
----------------------------------------------------- 
step 1995, time 0.997500, maxvel 30.000000, total vol 183256, vol(u>maxvel) 1.93081, cell count 448239
bounding box (containing cells with vel>maxvel): xmin -12.269 -1.69577 -0.503097, xmax -10.7851 1.69578 3.25683m 
bounding box of vehicle: xmin -12.2 -1.30048 -6.45439e-18, xmax 6.48827e-18 1.30048 3.6m 
gts area: 163.394 
yplus max: 129.254, yplus min: 0.0462101 
position of yplus max: -12.0211 1.28998 2.0049 
yplus prom: 2.71856 
forces: 1194.693072 -0.284631 -466.541376 
Drag coefficient: 0.333298 
torque (ref. CG): 0.398483 (roll) -1173.332092 (pitch) 1.736248 (yaw) 
----------------------------------------------------- 
step 1996, time 0.998000, maxvel 30.000000, total vol 183256, vol(u>maxvel) 1.9308, cell count 448238
bounding box (containing cells with vel>maxvel): xmin -12.269 -1.69577 -0.503097, xmax -10.7851 1.69578 3.25683m 
bounding box of vehicle: xmin -12.2 -1.30048 -6.45439e-18, xmax 6.48827e-18 1.30048 3.6m 
gts area: 163.394 
yplus max: 129.254, yplus min: 0.0461566 
position of yplus max: -12.0211 1.28998 2.0049 
yplus prom: 2.71858 
forces: 1194.673872 -0.281937 -466.550354 
Drag coefficient: 0.333293 
torque (ref. CG): 0.394712 (roll) -1173.413736 (pitch) 1.719816 (yaw) 
----------------------------------------------------- 
step 1997, time 0.998500, maxvel 30.000000, total vol 183256, vol(u>maxvel) 1.93079, cell count 448235
bounding box (containing cells with vel>maxvel): xmin -12.269 -1.69577 -0.503097, xmax -10.7851 1.69578 3.25683m 
bounding box of vehicle: xmin -12.2 -1.30048 -6.45439e-18, xmax 6.48827e-18 1.30048 3.6m 
gts area: 163.394 
yplus max: 129.254, yplus min: 0.0461016 
position of yplus max: -12.0211 1.28998 2.0049 
yplus prom: 2.71859 
forces: 1194.632894 -0.278146 -466.545305 
Drag coefficient: 0.333281 
torque (ref. CG): 0.389405 (roll) -1173.440309 (pitch) 1.696692 (yaw) 
----------------------------------------------------- 
step 1998, time 0.999000, maxvel 30.000000, total vol 183256, vol(u>maxvel) 1.93079, cell count 448234
bounding box (containing cells with vel>maxvel): xmin -12.269 -1.69577 -0.503097, xmax -10.7851 1.69578 3.25683m 
bounding box of vehicle: xmin -12.2 -1.30048 -6.45439e-18, xmax 6.48827e-18 1.30048 3.6m 
gts area: 163.394 
yplus max: 129.254, yplus min: 0.0460471 
position of yplus max: -12.0211 1.28998 2.0049 
yplus prom: 2.71861 
forces: 1194.634904 -0.283716 -466.568414 
Drag coefficient: 0.333282 
torque (ref. CG): 0.397202 (roll) -1173.578463 (pitch) 1.730666 (yaw) 
----------------------------------------------------- 
step 1999, time 0.999500, maxvel 30.000000, total vol 183256, vol(u>maxvel) 1.93079, cell count 448235
bounding box (containing cells with vel>maxvel): xmin -12.269 -1.69577 -0.503097, xmax -10.7851 1.69578 3.25683m 
bounding box of vehicle: xmin -12.2 -1.30048 -6.45439e-18, xmax 6.48827e-18 1.30048 3.6m 
gts area: 163.394 
yplus max: 129.254, yplus min: 0.0459907 
position of yplus max: -12.0211 1.28998 2.0049 
yplus prom: 2.71863 
forces: 1194.613715 -0.285426 -466.594128 
Drag coefficient: 0.333276 
torque (ref. CG): 0.399596 (roll) -1173.764982 (pitch) 1.741098 (yaw) 
----------------------------------------------------- 
step 2000, time 1.000000, maxvel 30.000000, total vol 183256, vol(u>maxvel) 1.93082, cell count 448236
bounding box (containing cells with vel>maxvel): xmin -12.269 -1.69577 -0.503097, xmax -10.7851 1.69578 3.25683m 
bounding box of vehicle: xmin -12.2 -1.30048 -6.45439e-18, xmax 6.48827e-18 1.30048 3.6m 
gts area: 163.394 
yplus max: 129.254, yplus min: 0.0459349 
position of yplus max: -12.0211 1.28998 2.0049 
yplus prom: 2.71864 
forces: 1194.585422 -0.287324 -466.628607 
Drag coefficient: 0.333268 
torque (ref. CG): 0.402253 (roll) -1174.014909 (pitch) 1.752674 (yaw) 
----------------------------------------------------- 

 *****************************
  Post-calculation operations
 *****************************

Ends run at jue ago 25 03:34:08 ART 2022
