Start run at Tue Aug 2 03:05:52 ART 2022
PYTHON_CS_XFLAGS=' -O0 -g3 -ggdb3 -I/usr/include/jsoncpp ' /share/storage/pub/mstorti/saturne-vof/bin/code_saturne  run --param setup.xml

The following have been reloaded with a version change:
  1) llvm/6.0.0 => llvm/3.4.2


The following have been reloaded with a version change:
  1) llvm/3.4.2 => llvm/6.0.0


                      Code_Saturne
                      ************

 Version:   6.1-alpha
 Path:      /share/storage/pub/mstorti/saturne-vof

 Result directory:
   /share/storage/finzeo/GTS_Tunay_2/RESU/20220802-0305


 ****************************************
  Compiling user subroutines and linking
 ****************************************


 ****************************
  Preparing calculation data
 ****************************

 Parallel Code_Saturne on 40 processes.


 ***************************
  Preprocessing calculation
 ***************************


 **********************
  Starting calculation
 **********************

Warning: Process to core binding is enabled and OMP_NUM_THREADS is set to non-zero (1) value
If your program has OpenMP sections, this can cause over-subscription of cores and consequently poor performance
To avoid this, please re-run your application after setting MV2_ENABLE_AFFINITY=0
Use MV2_USE_THREAD_WARNING=0 to suppress this message
step 1, time 0.001000, maxvel 2.000000, total vol 181461, vol(u>maxvel) 0, cell count 0
bounding box: xmin inf inf inf, xmax -inf -inf -infm 
bounding box of vehicle: xmin -12.2 -1.30003 -2.05998e-17, xmax 9.54098e-18 1.30033 3.6m 
yplus max: 48.4504, yplus min: 0 
position of yplus max: -7.40311 0.775062 3.6 
yplus prom: 12.437 
----------------------------------------------step 2, time 0.002000, maxvel 2.000000, total vol 181461, vol(u>maxvel) 0, cell count 0
bounding box: xmin inf inf inf, xmax -inf -inf -infm 
bounding box of vehicle: xmin -12.2 -1.30003 -2.05998e-17, xmax 9.54098e-18 1.30033 3.6m 
yplus max: 48.2121, yplus min: 1.79631 
position of yplus max: -12.1108 -0.922731 2.25661 
yplus prom: 8.55738 
----------------------------------------------step 3, time 0.003000, maxvel 2.000000, total vol 181461, vol(u>maxvel) 0, cell count 0
bounding box: xmin inf inf inf, xmax -inf -inf -infm 
bounding box of vehicle: xmin -12.2 -1.30003 -2.05998e-17, xmax 9.54098e-18 1.30033 3.6m 
yplus max: 48.2869, yplus min: 1.74043 
position of yplus max: -12.1108 -0.922731 2.25661 
yplus prom: 8.65254 
----------------------------------------------step 4, time 0.004000, maxvel 2.000000, total vol 181461, vol(u>maxvel) 0, cell count 0
bounding box: xmin inf inf inf, xmax -inf -inf -infm 
bounding box of vehicle: xmin -12.2 -1.30003 -2.05998e-17, xmax 9.54098e-18 1.30033 3.6m 
yplus max: 47.8582, yplus min: 1.41203 
position of yplus max: -12.1108 -0.922731 2.25661 
yplus prom: 8.6505 
----------------------------------------------step 5, time 0.005000, maxvel 2.000000, total vol 181461, vol(u>maxvel) 0, cell count 0
bounding box: xmin inf inf inf, xmax -inf -inf -infm 
bounding box of vehicle: xmin -12.2 -1.30003 -2.05998e-17, xmax 9.54098e-18 1.30033 3.6m 
yplus max: 47.6572, yplus min: 1.33917 
position of yplus max: -12.1108 -0.922731 2.25661 
yplus prom: 8.65606 
----------------------------------------------step 6, time 0.006000, maxvel 2.000000, total vol 181461, vol(u>maxvel) 0, cell count 0
bounding box: xmin inf inf inf, xmax -inf -inf -infm 
bounding box of vehicle: xmin -12.2 -1.30003 -2.05998e-17, xmax 9.54098e-18 1.30033 3.6m 
yplus max: 47.543, yplus min: 1.24475 
position of yplus max: -12.1108 -0.922731 2.25661 
yplus prom: 8.66279 
----------------------------------------------step 7, time 0.007000, maxvel 2.000000, total vol 181461, vol(u>maxvel) 0, cell count 0
bounding box: xmin inf inf inf, xmax -inf -inf -infm 
bounding box of vehicle: xmin -12.2 -1.30003 -2.05998e-17, xmax 9.54098e-18 1.30033 3.6m 
yplus max: 47.4606, yplus min: 0.867177 
position of yplus max: -12.1108 -0.922731 2.25661 
yplus prom: 8.66962 
----------------------------------------------step 8, time 0.008000, maxvel 2.000000, total vol 181461, vol(u>maxvel) 0, cell count 0
bounding box: xmin inf inf inf, xmax -inf -inf -infm 
bounding box of vehicle: xmin -12.2 -1.30003 -2.05998e-17, xmax 9.54098e-18 1.30033 3.6m 
yplus max: 47.3987, yplus min: 0.740272 
position of yplus max: -12.1108 -0.922731 2.25661 
yplus prom: 8.67649 
----------------------------------------------step 9, time 0.009000, maxvel 2.000000, total vol 181461, vol(u>maxvel) 0, cell count 0
bounding box: xmin inf inf inf, xmax -inf -inf -infm 
bounding box of vehicle: xmin -12.2 -1.30003 -2.05998e-17, xmax 9.54098e-18 1.30033 3.6m 
yplus max: 47.3538, yplus min: 0.811956 
position of yplus max: -12.1108 -0.922731 2.25661 
yplus prom: 8.6834 
----------------------------------------------step 10, time 0.010000, maxvel 2.000000, total vol 181461, vol(u>maxvel) 0, cell count 0
bounding box: xmin inf inf inf, xmax -inf -inf -infm 
bounding box of vehicle: xmin -12.2 -1.30003 -2.05998e-17, xmax 9.54098e-18 1.30033 3.6m 
yplus max: 47.323, yplus min: 0.629453 
position of yplus max: -12.1108 -0.922731 2.25661 
yplus prom: 8.69025 
----------------------------------------------step 11, time 0.011000, maxvel 2.000000, total vol 181461, vol(u>maxvel) 0, cell count 0
bounding box: xmin inf inf inf, xmax -inf -inf -infm 
bounding box of vehicle: xmin -12.2 -1.30003 -2.05998e-17, xmax 9.54098e-18 1.30033 3.6m 
yplus max: 47.304, yplus min: 0.452307 
position of yplus max: -12.1108 -0.922731 2.25661 
yplus prom: 8.69702 
----------------------------------------------step 12, time 0.012000, maxvel 2.000000, total vol 181461, vol(u>maxvel) 0, cell count 0
bounding box: xmin inf inf inf, xmax -inf -inf -infm 
bounding box of vehicle: xmin -12.2 -1.30003 -2.05998e-17, xmax 9.54098e-18 1.30033 3.6m 
yplus max: 47.2948, yplus min: 0.514343 
position of yplus max: -12.1108 -0.922731 2.25661 
yplus prom: 8.70384 
----------------------------------------------step 13, time 0.013000, maxvel 2.000000, total vol 181461, vol(u>maxvel) 0, cell count 0
bounding box: xmin inf inf inf, xmax -inf -inf -infm 
bounding box of vehicle: xmin -12.2 -1.30003 -2.05998e-17, xmax 9.54098e-18 1.30033 3.6m 
yplus max: 47.2935, yplus min: 0.424895 
position of yplus max: -12.1108 -0.922731 2.25661 
yplus prom: 8.71072 
----------------------------------------------step 14, time 0.014000, maxvel 2.000000, total vol 181461, vol(u>maxvel) 0, cell count 0
bounding box: xmin inf inf inf, xmax -inf -inf -infm 
bounding box of vehicle: xmin -12.2 -1.30003 -2.05998e-17, xmax 9.54098e-18 1.30033 3.6m 
yplus max: 47.2985, yplus min: 0.664799 
position of yplus max: -12.1108 -0.922731 2.25661 
yplus prom: 8.71752 
----------------------------------------------step 15, time 0.015000, maxvel 2.000000, total vol 181461, vol(u>maxvel) 0, cell count 0
bounding box: xmin inf inf inf, xmax -inf -inf -infm 
bounding box of vehicle: xmin -12.2 -1.30003 -2.05998e-17, xmax 9.54098e-18 1.30033 3.6m 
yplus max: 47.3087, yplus min: 0.355267 
position of yplus max: -12.1108 -0.922731 2.25661 
yplus prom: 8.72434 
----------------------------------------------step 16, time 0.016000, maxvel 2.000000, total vol 181461, vol(u>maxvel) 0, cell count 0
bounding box: xmin inf inf inf, xmax -inf -inf -infm 
bounding box of vehicle: xmin -12.2 -1.30003 -2.05998e-17, xmax 9.54098e-18 1.30033 3.6m 
yplus max: 47.3229, yplus min: 0.68698 
position of yplus max: -12.1108 -0.922731 2.25661 
yplus prom: 8.7327 
----------------------------------------------step 17, time 0.017000, maxvel 2.000000, total vol 181461, vol(u>maxvel) 0, cell count 0
bounding box: xmin inf inf inf, xmax -inf -inf -infm 
bounding box of vehicle: xmin -12.2 -1.30003 -2.05998e-17, xmax 9.54098e-18 1.30033 3.6m 
yplus max: 47.3405, yplus min: 1.18185 
position of yplus max: -12.1108 -0.922731 2.25661 
yplus prom: 8.74191 
----------------------------------------------step 18, time 0.018000, maxvel 2.000000, total vol 181461, vol(u>maxvel) 0, cell count 0
bounding box: xmin inf inf inf, xmax -inf -inf -infm 
bounding box of vehicle: xmin -12.2 -1.30003 -2.05998e-17, xmax 9.54098e-18 1.30033 3.6m 
yplus max: 47.3605, yplus min: 1.27288 
position of yplus max: -12.1108 -0.922731 2.25661 
yplus prom: 8.7509 
----------------------------------------------step 19, time 0.019000, maxvel 2.000000, total vol 181461, vol(u>maxvel) 0, cell count 0
bounding box: xmin inf inf inf, xmax -inf -inf -infm 
bounding box of vehicle: xmin -12.2 -1.30003 -2.05998e-17, xmax 9.54098e-18 1.30033 3.6m 
yplus max: 47.3827, yplus min: 1.35667 
position of yplus max: -12.1108 -0.922731 2.25661 
yplus prom: 8.75969 
----------------------------------------------step 20, time 0.020000, maxvel 2.000000, total vol 181461, vol(u>maxvel) 0, cell count 0
bounding box: xmin inf inf inf, xmax -inf -inf -infm 
bounding box of vehicle: xmin -12.2 -1.30003 -2.05998e-17, xmax 9.54098e-18 1.30033 3.6m 
yplus max: 47.4063, yplus min: 1.43455 
position of yplus max: -12.1108 -0.922731 2.25661 
yplus prom: 8.76829 
----------------------------------------------srun: Job step aborted: Waiting up to 32 seconds for job step to finish.
srun: got SIGCONT
slurmstepd: error: *** STEP 138341.0 ON compute-0-21 CANCELLED AT 2022-08-02T03:08:05 ***
slurmstepd: error: *** JOB 138341 ON compute-0-21 CANCELLED AT 2022-08-02T03:08:05 ***
srun: forcing job termination
make: *** [run] Terminated
