Start run at lun ago 22 17:44:36 ART 2022
PYTHON_CS_XFLAGS=' -O0 -g3 -ggdb3 -I/usr/include/jsoncpp ' /share/storage/pub/mstorti/saturne-vof/bin/code_saturne  run --param setup.xml

The following have been reloaded with a version change:
  1) llvm/6.0.0 => llvm/3.4.2


The following have been reloaded with a version change:
  1) llvm/3.4.2 => llvm/6.0.0


                      Code_Saturne
                      ************

 Version:   6.1-alpha
 Path:      /share/storage/pub/mstorti/saturne-vof

 Result directory:
   /share/storage/finzeo/GTS_Tunay_2/RESU/20220822-1744


 ****************************************
  Compiling user subroutines and linking
 ****************************************


 ****************************
  Preparing calculation data
 ****************************

 Parallel Code_Saturne on 140 processes.


 ***************************
  Preprocessing calculation
 ***************************


 **********************
  Starting calculation
 **********************

Warning: Process to core binding is enabled and OMP_NUM_THREADS is set to non-zero (1) value
If your program has OpenMP sections, this can cause over-subscription of cores and consequently poor performance
To avoid this, please re-run your application after setting MV2_ENABLE_AFFINITY=0
Use MV2_USE_THREAD_WARNING=0 to suppress this message
step 1, time 0.000700, maxvel 30.000000, total vol 183256, vol(u>maxvel) 7.07371, cell count 1976284
bounding box (containing cells with vel>maxvel): xmin -12.2942 -1.85317 -0.473571, xmax 0.202308 1.85317 4.08652m 
bounding box of vehicle: xmin -12.2 -1.30015 -1.35525e-18, xmax 9.21572e-19 1.30015 3.6m 
gts area: 163.395 
yplus max: 96.4717, yplus min: 0 
position of yplus max: -7.59955 -1.26171 3.53597 
yplus prom: 9.31628 
forces: 341345868.429496 -20418.328779 -40627614.256159 
Drag coefficient: 95253.580273 
torque (ref. CG): 28585.660290 (roll) 230055768.838744 (pitch) 124551.805551 (yaw) 
----------------------------------------------------- 
step 2, time 0.001400, maxvel 30.000000, total vol 183256, vol(u>maxvel) 7.27398, cell count 2224618
bounding box (containing cells with vel>maxvel): xmin -12.2942 -1.8533 -0.473571, xmax 0.248458 1.85329 4.08655m 
bounding box of vehicle: xmin -12.2 -1.30015 -1.35525e-18, xmax 9.21572e-19 1.30015 3.6m 
gts area: 163.395 
yplus max: 99.4716, yplus min: 0.411534 
position of yplus max: -11.9525 1.25379 0.00584242 
yplus prom: 5.21388 
forces: 824189.357700 53.791462 -100493.873947 
Drag coefficient: 229.992493 
torque (ref. CG): -75.308047 (roll) 540852.469705 (pitch) -328.127921 (yaw) 
----------------------------------------------------- 
step 3, time 0.002100, maxvel 30.000000, total vol 183256, vol(u>maxvel) 7.29007, cell count 2495735
bounding box (containing cells with vel>maxvel): xmin -12.2942 -1.85326 -0.473571, xmax 0.248494 1.85326 4.08654m 
bounding box of vehicle: xmin -12.2 -1.30015 -1.35525e-18, xmax 9.21572e-19 1.30015 3.6m 
gts area: 163.395 
yplus max: 103.97, yplus min: 0.14864 
position of yplus max: -11.9525 1.25379 0.00584242 
yplus prom: 5.23608 
forces: 16330.007911 -10.687759 -2664.946857 
Drag coefficient: 4.556937 
torque (ref. CG): 14.962863 (roll) 6605.835248 (pitch) 65.195330 (yaw) 
----------------------------------------------------- 
step 4, time 0.002800, maxvel 30.000000, total vol 183256, vol(u>maxvel) 7.27011, cell count 2620340
bounding box (containing cells with vel>maxvel): xmin -12.2939 -1.85323 -0.473571, xmax 0.264761 1.85323 4.08653m 
bounding box of vehicle: xmin -12.2 -1.30015 -1.35525e-18, xmax 9.21572e-19 1.30015 3.6m 
gts area: 163.395 
yplus max: 105.466, yplus min: 0.108166 
position of yplus max: -11.9525 1.25379 0.00584242 
yplus prom: 5.40854 
forces: 2313.837554 0.446044 -755.452738 
Drag coefficient: 0.645683 
torque (ref. CG): -0.624461 (roll) -1368.889125 (pitch) -2.720867 (yaw) 
----------------------------------------------------- 
step 5, time 0.003500, maxvel 30.000000, total vol 183256, vol(u>maxvel) 7.2487, cell count 2539125
bounding box (containing cells with vel>maxvel): xmin -12.2939 -1.8532 -0.473571, xmax 0.264847 1.8532 4.08653m 
bounding box of vehicle: xmin -12.2 -1.30015 -1.35525e-18, xmax 9.21572e-19 1.30015 3.6m 
gts area: 163.395 
yplus max: 106.641, yplus min: 0.161097 
position of yplus max: -11.9525 1.25379 0.00584242 
yplus prom: 4.88986 
forces: 2167.969860 -0.134690 -848.559141 
Drag coefficient: 0.604978 
torque (ref. CG): 0.188566 (roll) -2141.052957 (pitch) 0.821610 (yaw) 
----------------------------------------------------- 
step 6, time 0.004200, maxvel 30.000000, total vol 183256, vol(u>maxvel) 7.22748, cell count 2459768
bounding box (containing cells with vel>maxvel): xmin -12.2938 -1.85316 -0.473571, xmax 0.265059 1.85316 4.08652m 
bounding box of vehicle: xmin -12.2 -1.30015 -1.35525e-18, xmax 9.21572e-19 1.30015 3.6m 
gts area: 163.395 
yplus max: 107.808, yplus min: 0.13978 
position of yplus max: -11.9525 1.25379 0.00584242 
yplus prom: 4.50928 
forces: 2355.860969 -0.251837 -855.884093 
Drag coefficient: 0.657410 
torque (ref. CG): 0.352572 (roll) -1922.687612 (pitch) 1.536207 (yaw) 
----------------------------------------------------- 
step 7, time 0.004900, maxvel 30.000000, total vol 183256, vol(u>maxvel) 7.21695, cell count 2398843
bounding box (containing cells with vel>maxvel): xmin -12.2712 -1.85313 -0.473571, xmax 0.265097 1.85313 4.08652m 
bounding box of vehicle: xmin -12.2 -1.30015 -1.35525e-18, xmax 9.21572e-19 1.30015 3.6m 
gts area: 163.395 
yplus max: 108.912, yplus min: 0.12181 
position of yplus max: -11.9525 1.25379 0.00584242 
yplus prom: 4.32095 
forces: 2493.949806 -0.344000 -850.221670 
Drag coefficient: 0.695944 
torque (ref. CG): 0.481600 (roll) -1694.822461 (pitch) 2.098400 (yaw) 
----------------------------------------------------- 
step 8, time 0.005600, maxvel 30.000000, total vol 183256, vol(u>maxvel) 7.21262, cell count 2383294
bounding box (containing cells with vel>maxvel): xmin -12.2712 -1.85309 -0.473571, xmax 0.265144 1.85309 4.08651m 
bounding box of vehicle: xmin -12.2 -1.30015 -1.35525e-18, xmax 9.21572e-19 1.30015 3.6m 
gts area: 163.395 
yplus max: 109.914, yplus min: 0.111803 
position of yplus max: -11.9525 1.25379 0.00584242 
yplus prom: 4.24499 
forces: 2622.723365 -0.346327 -844.248151 
Drag coefficient: 0.731879 
torque (ref. CG): 0.484858 (roll) -1478.101013 (pitch) 2.112596 (yaw) 
----------------------------------------------------- 
step 9, time 0.006300, maxvel 30.000000, total vol 183256, vol(u>maxvel) 7.1941, cell count 2383959
bounding box (containing cells with vel>maxvel): xmin -12.2712 -1.85305 -0.473571, xmax 0.265186 1.85305 4.0865m 
bounding box of vehicle: xmin -12.2 -1.30015 -1.35525e-18, xmax 9.21572e-19 1.30015 3.6m 
gts area: 163.395 
yplus max: 110.812, yplus min: 0.0983434 
position of yplus max: -11.9525 1.25379 0.00584242 
yplus prom: 4.22474 
forces: 2729.296863 -0.259238 -840.447076 
Drag coefficient: 0.761618 
torque (ref. CG): 0.362933 (roll) -1305.711553 (pitch) 1.581349 (yaw) 
----------------------------------------------------- 
step 10, time 0.007000, maxvel 30.000000, total vol 183256, vol(u>maxvel) 7.19038, cell count 2383677
bounding box (containing cells with vel>maxvel): xmin -12.2712 -1.85301 -0.473571, xmax 0.311334 1.85301 4.08591m 
bounding box of vehicle: xmin -12.2 -1.30015 -1.35525e-18, xmax 9.21572e-19 1.30015 3.6m 
gts area: 163.395 
yplus max: 111.615, yplus min: 0.0908762 
position of yplus max: -11.9525 1.25379 0.00584242 
yplus prom: 4.2303 
forces: 2816.001399 -0.149783 -838.502237 
Drag coefficient: 0.785814 
torque (ref. CG): 0.209696 (roll) -1172.461687 (pitch) 0.913674 (yaw) 
----------------------------------------------------- 
step 11, time 0.007700, maxvel 30.000000, total vol 183256, vol(u>maxvel) 7.18606, cell count 2386776
bounding box (containing cells with vel>maxvel): xmin -12.2712 -1.85297 -0.473571, xmax 0.311404 1.85296 4.02432m 
bounding box of vehicle: xmin -12.2 -1.30015 -1.35525e-18, xmax 9.21572e-19 1.30015 3.6m 
gts area: 163.395 
yplus max: 112.332, yplus min: 0.0848144 
position of yplus max: -11.9525 1.25379 0.00584242 
yplus prom: 4.24765 
forces: 2883.622582 -0.040368 -838.263455 
Drag coefficient: 0.804683 
torque (ref. CG): 0.056516 (roll) -1076.335463 (pitch) 0.246247 (yaw) 
----------------------------------------------------- 
step 12, time 0.008400, maxvel 30.000000, total vol 183256, vol(u>maxvel) 7.19452, cell count 2390363
bounding box (containing cells with vel>maxvel): xmin -12.2712 -1.85292 -0.473571, xmax 0.311526 1.85292 4.02432m 
bounding box of vehicle: xmin -12.2 -1.30015 -1.35525e-18, xmax 9.21572e-19 1.30015 3.6m 
gts area: 163.395 
yplus max: 112.971, yplus min: 0.0399913 
position of yplus max: -11.9525 1.25379 0.00584242 
yplus prom: 4.27061 
forces: 2934.005151 0.037140 -838.934612 
Drag coefficient: 0.818743 
torque (ref. CG): -0.051995 (roll) -1009.893922 (pitch) -0.226552 (yaw) 
----------------------------------------------------- 
step 13, time 0.009100, maxvel 30.000000, total vol 183256, vol(u>maxvel) 7.18545, cell count 2392493
bounding box (containing cells with vel>maxvel): xmin -12.2712 -1.85282 -0.473571, xmax 0.311562 1.85282 4.02432m 
bounding box of vehicle: xmin -12.2 -1.30015 -1.35525e-18, xmax 9.21572e-19 1.30015 3.6m 
gts area: 163.395 
yplus max: 113.541, yplus min: 0.0723097 
position of yplus max: -11.9525 1.25379 0.00584242 
yplus prom: 4.29606 
forces: 2970.292122 0.105583 -839.917915 
Drag coefficient: 0.828869 
torque (ref. CG): -0.147816 (roll) -965.090313 (pitch) -0.644055 (yaw) 
----------------------------------------------------- 
step 14, time 0.009800, maxvel 30.000000, total vol 183256, vol(u>maxvel) 7.17687, cell count 2390505
bounding box (containing cells with vel>maxvel): xmin -12.2713 -1.79105 -0.473571, xmax 0.311826 1.79104 4.02432m 
bounding box of vehicle: xmin -12.2 -1.30015 -1.35525e-18, xmax 9.21572e-19 1.30015 3.6m 
gts area: 163.395 
yplus max: 114.051, yplus min: 0.0659911 
position of yplus max: -11.9525 1.25379 0.00584242 
yplus prom: 4.32219 
forces: 2995.267810 0.176175 -841.430665 
Drag coefficient: 0.835838 
torque (ref. CG): -0.246645 (roll) -939.352121 (pitch) -1.074669 (yaw) 
----------------------------------------------------- 
step 15, time 0.010500, maxvel 30.000000, total vol 183256, vol(u>maxvel) 7.18265, cell count 2390185
bounding box (containing cells with vel>maxvel): xmin -12.2713 -1.79102 -0.473571, xmax 0.311891 1.79101 4.02432m 
bounding box of vehicle: xmin -12.2 -1.30015 -1.35525e-18, xmax 9.21572e-19 1.30015 3.6m 
gts area: 163.395 
yplus max: 114.506, yplus min: 0.0334301 
position of yplus max: -11.9525 1.25379 0.00584242 
yplus prom: 4.3476 
forces: 3012.163032 0.214344 -843.025292 
Drag coefficient: 0.840553 
torque (ref. CG): -0.300082 (roll) -925.426037 (pitch) -1.307498 (yaw) 
----------------------------------------------------- 
step 16, time 0.011200, maxvel 30.000000, total vol 183256, vol(u>maxvel) 7.1829, cell count 2387054
bounding box (containing cells with vel>maxvel): xmin -12.2714 -1.79102 -0.473571, xmax 0.311928 1.79101 4.02432m 
bounding box of vehicle: xmin -12.2 -1.30015 -1.35525e-18, xmax 9.21572e-19 1.30015 3.6m 
gts area: 163.395 
yplus max: 114.913, yplus min: 0.0630154 
position of yplus max: -11.9525 1.25379 0.00584242 
yplus prom: 4.3718 
forces: 3022.240838 0.251532 -844.772468 
Drag coefficient: 0.843365 
torque (ref. CG): -0.352145 (roll) -921.974882 (pitch) -1.534347 (yaw) 
----------------------------------------------------- 
step 17, time 0.011900, maxvel 30.000000, total vol 183256, vol(u>maxvel) 7.18433, cell count 2384312
bounding box (containing cells with vel>maxvel): xmin -12.2714 -1.79102 -0.473571, xmax 0.31196 1.79101 4.02432m 
bounding box of vehicle: xmin -12.2 -1.30015 -1.35525e-18, xmax 9.21572e-19 1.30015 3.6m 
gts area: 163.395 
yplus max: 115.274, yplus min: 0.0467036 
position of yplus max: -11.9525 1.25379 0.00584242 
yplus prom: 4.39455 
forces: 3027.520886 0.268124 -846.134241 
Drag coefficient: 0.844839 
torque (ref. CG): -0.375373 (roll) -922.889629 (pitch) -1.635554 (yaw) 
----------------------------------------------------- 
step 18, time 0.012600, maxvel 30.000000, total vol 183256, vol(u>maxvel) 7.17493, cell count 2383799
bounding box (containing cells with vel>maxvel): xmin -12.2715 -1.79099 -0.473571, xmax 0.312007 1.79098 4.02432m 
bounding box of vehicle: xmin -12.2 -1.30015 -1.35525e-18, xmax 9.21572e-19 1.30015 3.6m 
gts area: 163.395 
yplus max: 115.593, yplus min: 0.0166769 
position of yplus max: -11.9525 1.25379 0.00584242 
yplus prom: 4.41572 
forces: 3030.780676 0.274313 -847.072308 
Drag coefficient: 0.845748 
torque (ref. CG): -0.384038 (roll) -924.048135 (pitch) -1.673307 (yaw) 
----------------------------------------------------- 
step 19, time 0.013300, maxvel 30.000000, total vol 183256, vol(u>maxvel) 7.17726, cell count 2383496
bounding box (containing cells with vel>maxvel): xmin -12.2715 -1.79099 -0.473571, xmax 0.314024 1.79098 4.02431m 
bounding box of vehicle: xmin -12.2 -1.30015 -1.35525e-18, xmax 9.21572e-19 1.30015 3.6m 
gts area: 163.395 
yplus max: 115.872, yplus min: 0.0194209 
position of yplus max: -11.9525 1.25379 0.00584242 
yplus prom: 4.43534 
forces: 3032.084416 0.284353 -847.710557 
Drag coefficient: 0.846112 
torque (ref. CG): -0.398094 (roll) -926.116212 (pitch) -1.734554 (yaw) 
----------------------------------------------------- 
step 20, time 0.014000, maxvel 30.000000, total vol 183256, vol(u>maxvel) 7.17575, cell count 2385734
bounding box (containing cells with vel>maxvel): xmin -12.2715 -1.79095 -0.473571, xmax 0.314088 1.79095 4.02431m 
bounding box of vehicle: xmin -12.2 -1.30015 -1.35525e-18, xmax 9.21572e-19 1.30015 3.6m 
gts area: 163.395 
yplus max: 116.115, yplus min: 0.0418336 
position of yplus max: -11.9525 1.25379 0.00584242 
yplus prom: 4.45346 
forces: 3032.031063 0.278322 -848.177172 
Drag coefficient: 0.846097 
torque (ref. CG): -0.389651 (roll) -929.037263 (pitch) -1.697764 (yaw) 
----------------------------------------------------- 
step 21, time 0.014700, maxvel 30.000000, total vol 183256, vol(u>maxvel) 7.18354, cell count 2386400
bounding box (containing cells with vel>maxvel): xmin -12.2715 -1.79095 -0.473571, xmax 0.374146 1.79095 4.02431m 
bounding box of vehicle: xmin -12.2 -1.30015 -1.35525e-18, xmax 9.21572e-19 1.30015 3.6m 
gts area: 163.395 
yplus max: 116.324, yplus min: 0.0424194 
position of yplus max: -11.9525 1.25379 0.00584242 
yplus prom: 4.4701 
forces: 3030.766898 0.278218 -848.467286 
Drag coefficient: 0.845745 
torque (ref. CG): -0.389505 (roll) -932.576788 (pitch) -1.697128 (yaw) 
----------------------------------------------------- 
step 22, time 0.015400, maxvel 30.000000, total vol 183256, vol(u>maxvel) 7.19047, cell count 2385269
bounding box (containing cells with vel>maxvel): xmin -12.2716 -1.79092 -0.473571, xmax 0.374205 1.79092 4.0243m 
bounding box of vehicle: xmin -12.2 -1.30015 -1.35525e-18, xmax 9.21572e-19 1.30015 3.6m 
gts area: 163.395 
yplus max: 116.503, yplus min: 0.039308 
position of yplus max: -11.9525 1.25379 0.00584242 
yplus prom: 4.48528 
forces: 3028.870978 0.279380 -848.545271 
Drag coefficient: 0.845215 
torque (ref. CG): -0.391132 (roll) -935.706786 (pitch) -1.704217 (yaw) 
----------------------------------------------------- 
step 23, time 0.016100, maxvel 30.000000, total vol 183256, vol(u>maxvel) 7.18613, cell count 2383685
bounding box (containing cells with vel>maxvel): xmin -12.2716 -1.79092 -0.473571, xmax 0.374273 1.79092 4.0243m 
bounding box of vehicle: xmin -12.2 -1.30015 -1.35525e-18, xmax 9.21572e-19 1.30015 3.6m 
gts area: 163.395 
yplus max: 116.656, yplus min: 0.0251329 
position of yplus max: -11.9525 1.25379 0.00584242 
yplus prom: 4.49896 
forces: 3026.284972 0.272435 -848.537086 
Drag coefficient: 0.844494 
torque (ref. CG): -0.381409 (roll) -939.277267 (pitch) -1.661854 (yaw) 
----------------------------------------------------- 
step 24, time 0.016800, maxvel 30.000000, total vol 183256, vol(u>maxvel) 7.18644, cell count 2380752
bounding box (containing cells with vel>maxvel): xmin -12.2716 -1.7909 -0.473571, xmax 0.374302 1.7909 4.02428m 
bounding box of vehicle: xmin -12.2 -1.30015 -1.35525e-18, xmax 9.21572e-19 1.30015 3.6m 
gts area: 163.395 
yplus max: 116.786, yplus min: 0.0187901 
position of yplus max: -11.9525 1.25379 0.00584242 
yplus prom: 4.51127 
forces: 3022.966410 0.270635 -848.437529 
Drag coefficient: 0.843568 
torque (ref. CG): -0.378889 (roll) -943.315951 (pitch) -1.650874 (yaw) 
----------------------------------------------------- 
step 25, time 0.017500, maxvel 30.000000, total vol 183256, vol(u>maxvel) 7.19309, cell count 2378601
bounding box (containing cells with vel>maxvel): xmin -12.2716 -1.7909 -0.473571, xmax 0.375951 1.7909 4.02428m 
bounding box of vehicle: xmin -12.2 -1.30015 -1.35525e-18, xmax 9.21572e-19 1.30015 3.6m 
gts area: 163.395 
yplus max: 116.897, yplus min: 0.0356785 
position of yplus max: -11.9525 1.25379 0.00584242 
yplus prom: 4.52227 
forces: 3019.261889 0.270123 -848.554630 
Drag coefficient: 0.842534 
torque (ref. CG): -0.378173 (roll) -949.216601 (pitch) -1.647753 (yaw) 
----------------------------------------------------- 
step 26, time 0.018200, maxvel 30.000000, total vol 183256, vol(u>maxvel) 7.20571, cell count 2374863
bounding box (containing cells with vel>maxvel): xmin -12.2716 -1.79087 -0.473571, xmax 0.376095 1.79086 4.02427m 
bounding box of vehicle: xmin -12.2 -1.30015 -1.35525e-18, xmax 9.21572e-19 1.30015 3.6m 
gts area: 163.395 
yplus max: 116.99, yplus min: 0.0323525 
position of yplus max: -11.9525 1.25379 0.00584242 
yplus prom: 4.53217 
forces: 3015.237212 0.268729 -848.392238 
Drag coefficient: 0.841411 
torque (ref. CG): -0.376221 (roll) -953.860554 (pitch) -1.639247 (yaw) 
----------------------------------------------------- 
step 27, time 0.018900, maxvel 30.000000, total vol 183256, vol(u>maxvel) 7.20298, cell count 2369336
bounding box (containing cells with vel>maxvel): xmin -12.2716 -1.79087 -0.473571, xmax 0.376324 1.79086 4.02426m 
bounding box of vehicle: xmin -12.2 -1.30015 -1.35525e-18, xmax 9.21572e-19 1.30015 3.6m 
gts area: 163.395 
yplus max: 117.07, yplus min: 0.0320408 
position of yplus max: -11.9525 1.25379 0.00584242 
yplus prom: 4.54113 
forces: 3011.173861 0.267496 -848.349198 
Drag coefficient: 0.840277 
torque (ref. CG): -0.374494 (roll) -959.286703 (pitch) -1.631724 (yaw) 
----------------------------------------------------- 
step 28, time 0.019600, maxvel 30.000000, total vol 183256, vol(u>maxvel) 7.19715, cell count 2364050
bounding box (containing cells with vel>maxvel): xmin -12.2716 -1.79084 -0.473571, xmax 0.376343 1.79083 4.02425m 
bounding box of vehicle: xmin -12.2 -1.30015 -1.35525e-18, xmax 9.21572e-19 1.30015 3.6m 
gts area: 163.395 
yplus max: 117.138, yplus min: 0.0161848 
position of yplus max: -11.9525 1.25379 0.00584242 
yplus prom: 4.54922 
forces: 3006.946092 0.267172 -848.451423 
Drag coefficient: 0.839097 
torque (ref. CG): -0.374041 (roll) -965.829152 (pitch) -1.629749 (yaw) 
----------------------------------------------------- 
step 29, time 0.020300, maxvel 30.000000, total vol 183256, vol(u>maxvel) 7.18353, cell count 2356656
bounding box (containing cells with vel>maxvel): xmin -12.2716 -1.7908 -0.473571, xmax 0.376343 1.7908 4.0237m 
bounding box of vehicle: xmin -12.2 -1.30015 -1.35525e-18, xmax 9.21572e-19 1.30015 3.6m 
gts area: 163.395 
yplus max: 117.196, yplus min: 0.0329567 
position of yplus max: -11.9525 1.25379 0.00584242 
yplus prom: 4.55659 
forces: 3002.662910 0.273986 -848.764037 
Drag coefficient: 0.837902 
torque (ref. CG): -0.383580 (roll) -973.732554 (pitch) -1.671314 (yaw) 
----------------------------------------------------- 
step 30, time 0.021000, maxvel 30.000000, total vol 183256, vol(u>maxvel) 7.17082, cell count 2348922
bounding box (containing cells with vel>maxvel): xmin -12.2716 -1.79077 -0.473571, xmax 0.436495 1.79076 4.0237m 
bounding box of vehicle: xmin -12.2 -1.30015 -1.35525e-18, xmax 9.21572e-19 1.30015 3.6m 
gts area: 163.395 
yplus max: 117.246, yplus min: 0.023052 
position of yplus max: -11.9525 1.25379 0.00584242 
yplus prom: 4.5634 
forces: 2998.485103 0.272320 -848.764710 
Drag coefficient: 0.836736 
torque (ref. CG): -0.381247 (roll) -979.585586 (pitch) -1.661150 (yaw) 
----------------------------------------------------- 
step 31, time 0.021700, maxvel 30.000000, total vol 183256, vol(u>maxvel) 7.17053, cell count 2340901
bounding box (containing cells with vel>maxvel): xmin -12.2716 -1.79073 -0.473571, xmax 0.4366 1.79072 4.02368m 
bounding box of vehicle: xmin -12.2 -1.30015 -1.35525e-18, xmax 9.21572e-19 1.30015 3.6m 
gts area: 163.395 
yplus max: 117.289, yplus min: 0.0338105 
position of yplus max: -11.9525 1.25379 0.00584242 
yplus prom: 4.56966 
forces: 2994.543436 0.258623 -848.865177 
Drag coefficient: 0.835636 
torque (ref. CG): -0.362072 (roll) -985.716773 (pitch) -1.577597 (yaw) 
----------------------------------------------------- 
step 32, time 0.022400, maxvel 30.000000, total vol 183256, vol(u>maxvel) 7.16203, cell count 2332687
bounding box (containing cells with vel>maxvel): xmin -12.2716 -1.79069 -0.473571, xmax 0.436647 1.79068 4.02368m 
bounding box of vehicle: xmin -12.2 -1.30015 -1.35525e-18, xmax 9.21572e-19 1.30015 3.6m 
gts area: 163.395 
yplus max: 117.325, yplus min: 0.0705608 
position of yplus max: -11.9525 1.25379 0.00584242 
yplus prom: 4.57527 
forces: 2990.489091 0.282203 -849.027557 
Drag coefficient: 0.834505 
torque (ref. CG): -0.395084 (roll) -992.383370 (pitch) -1.721438 (yaw) 
----------------------------------------------------- 
step 33, time 0.023100, maxvel 30.000000, total vol 183256, vol(u>maxvel) 7.16479, cell count 2323786
bounding box (containing cells with vel>maxvel): xmin -12.2716 -1.7906 -0.473571, xmax 0.438382 1.7906 4.02367m 
bounding box of vehicle: xmin -12.2 -1.30015 -1.35525e-18, xmax 9.21572e-19 1.30015 3.6m 
gts area: 163.395 
yplus max: 117.357, yplus min: 0.0722826 
position of yplus max: -11.9525 1.25379 0.00584242 
yplus prom: 4.58035 
forces: 2986.387228 0.258505 -849.101014 
Drag coefficient: 0.833360 
torque (ref. CG): -0.361907 (roll) -998.574067 (pitch) -1.576879 (yaw) 
----------------------------------------------------- 
step 34, time 0.023800, maxvel 30.000000, total vol 183256, vol(u>maxvel) 7.14947, cell count 2315258
bounding box (containing cells with vel>maxvel): xmin -12.2716 -1.79026 -0.473571, xmax 0.438448 1.79026 4.02113m 
bounding box of vehicle: xmin -12.2 -1.30015 -1.35525e-18, xmax 9.21572e-19 1.30015 3.6m 
gts area: 163.395 
yplus max: 117.383, yplus min: 0.0403125 
position of yplus max: -11.9525 1.25379 0.00584242 
yplus prom: 4.58496 
forces: 2981.892805 0.278682 -849.306939 
Drag coefficient: 0.832106 
torque (ref. CG): -0.390154 (roll) -1006.122402 (pitch) -1.699957 (yaw) 
----------------------------------------------------- 
step 35, time 0.024500, maxvel 30.000000, total vol 183256, vol(u>maxvel) 7.12905, cell count 2305180
bounding box (containing cells with vel>maxvel): xmin -12.2716 -1.79019 -0.473571, xmax 0.4387 1.79019 4.02112m 
bounding box of vehicle: xmin -12.2 -1.30015 -1.35525e-18, xmax 9.21572e-19 1.30015 3.6m 
gts area: 163.395 
yplus max: 117.405, yplus min: 0.0733015 
position of yplus max: -11.9525 1.25379 0.00584242 
yplus prom: 4.58911 
forces: 2977.113098 0.260275 -849.009933 
Drag coefficient: 0.830772 
torque (ref. CG): -0.364385 (roll) -1011.002254 (pitch) -1.587678 (yaw) 
----------------------------------------------------- 
step 36, time 0.025200, maxvel 30.000000, total vol 183256, vol(u>maxvel) 7.11168, cell count 2292547
bounding box (containing cells with vel>maxvel): xmin -12.2716 -1.79005 -0.473571, xmax 0.438701 1.79012 4.02112m 
bounding box of vehicle: xmin -12.2 -1.30015 -1.35525e-18, xmax 9.21572e-19 1.30015 3.6m 
gts area: 163.395 
yplus max: 117.424, yplus min: 0.0183829 
position of yplus max: -11.9525 1.25379 0.00584242 
yplus prom: 4.59286 
forces: 2971.880984 0.259037 -848.921961 
Drag coefficient: 0.829312 
torque (ref. CG): -0.362652 (roll) -1017.790585 (pitch) -1.580128 (yaw) 
----------------------------------------------------- 
step 37, time 0.025900, maxvel 30.000000, total vol 183256, vol(u>maxvel) 7.0904, cell count 2281075
bounding box (containing cells with vel>maxvel): xmin -12.2716 -1.78953 -0.473571, xmax 0.438701 1.78953 4.02111m 
bounding box of vehicle: xmin -12.2 -1.30015 -1.35525e-18, xmax 9.21572e-19 1.30015 3.6m 
gts area: 163.395 
yplus max: 117.44, yplus min: 0.0706897 
position of yplus max: -11.9525 1.25379 0.00584242 
yplus prom: 4.59628 
forces: 2966.300319 0.249233 -848.645888 
Drag coefficient: 0.827755 
torque (ref. CG): -0.348926 (roll) -1023.919469 (pitch) -1.520322 (yaw) 
----------------------------------------------------- 
step 38, time 0.026600, maxvel 30.000000, total vol 183256, vol(u>maxvel) 7.05745, cell count 2269582
bounding box (containing cells with vel>maxvel): xmin -12.2716 -1.78945 -0.473571, xmax 0.438701 1.78945 4.02111m 
bounding box of vehicle: xmin -12.2 -1.30015 -1.35525e-18, xmax 9.21572e-19 1.30015 3.6m 
gts area: 163.395 
yplus max: 117.452, yplus min: 0.0216851 
position of yplus max: -11.9525 1.25379 0.00584242 
yplus prom: 4.59935 
forces: 2960.258043 0.243935 -848.409420 
Drag coefficient: 0.826069 
torque (ref. CG): -0.341509 (roll) -1030.936200 (pitch) -1.488004 (yaw) 
----------------------------------------------------- 
step 39, time 0.027300, maxvel 30.000000, total vol 183256, vol(u>maxvel) 7.03619, cell count 2257585
bounding box (containing cells with vel>maxvel): xmin -12.2716 -1.78723 -0.473571, xmax 0.498913 1.78723 4.01914m 
bounding box of vehicle: xmin -12.2 -1.30015 -1.35525e-18, xmax 9.21572e-19 1.30015 3.6m 
gts area: 163.395 
yplus max: 117.463, yplus min: 0.0267684 
position of yplus max: -11.9525 1.25379 0.00584242 
yplus prom: 4.60209 
forces: 2953.859973 0.236179 -848.113890 
Drag coefficient: 0.824283 
torque (ref. CG): -0.330651 (roll) -1038.090768 (pitch) -1.440694 (yaw) 
----------------------------------------------------- 
step 40, time 0.028000, maxvel 30.000000, total vol 183256, vol(u>maxvel) 7.01979, cell count 2245924
bounding box (containing cells with vel>maxvel): xmin -12.2716 -1.78721 -0.473571, xmax 0.498966 1.7872 4.01914m 
bounding box of vehicle: xmin -12.2 -1.30015 -1.35525e-18, xmax 9.21572e-19 1.30015 3.6m 
gts area: 163.395 
yplus max: 117.471, yplus min: 0.050451 
position of yplus max: -11.9525 1.25379 0.00584242 
yplus prom: 4.60455 
forces: 2947.149332 0.222774 -847.745510 
Drag coefficient: 0.822411 
torque (ref. CG): -0.311884 (roll) -1045.238549 (pitch) -1.358922 (yaw) 
----------------------------------------------------- 
step 41, time 0.028700, maxvel 30.000000, total vol 183256, vol(u>maxvel) 7.01381, cell count 2235161
bounding box (containing cells with vel>maxvel): xmin -12.2716 -1.78718 -0.473571, xmax 0.500702 1.78718 4.01913m 
bounding box of vehicle: xmin -12.2 -1.30015 -1.35525e-18, xmax 9.21572e-19 1.30015 3.6m 
gts area: 163.395 
yplus max: 117.477, yplus min: 0.0241474 
position of yplus max: -11.9525 1.25379 0.00584242 
yplus prom: 4.60674 
forces: 2940.106831 0.210625 -847.388432 
Drag coefficient: 0.820446 
torque (ref. CG): -0.294875 (roll) -1052.919870 (pitch) -1.284812 (yaw) 
----------------------------------------------------- 
step 42, time 0.029400, maxvel 30.000000, total vol 183256, vol(u>maxvel) 6.99362, cell count 2223001
bounding box (containing cells with vel>maxvel): xmin -12.2716 -1.78708 -0.473571, xmax 0.500774 1.78709 3.962m 
bounding box of vehicle: xmin -12.2 -1.30015 -1.35525e-18, xmax 9.21572e-19 1.30015 3.6m 
gts area: 163.395 
yplus max: 117.482, yplus min: 0.0641529 
position of yplus max: -11.9525 1.25379 0.00584242 
yplus prom: 4.60864 
forces: 2932.804088 0.202195 -847.084109 
Drag coefficient: 0.818408 
torque (ref. CG): -0.283073 (roll) -1061.287342 (pitch) -1.233388 (yaw) 
----------------------------------------------------- 
step 43, time 0.030100, maxvel 30.000000, total vol 183256, vol(u>maxvel) 6.97858, cell count 2210651
bounding box (containing cells with vel>maxvel): xmin -12.2716 -1.7859 -0.473571, xmax 0.500805 1.7859 3.96148m 
bounding box of vehicle: xmin -12.2 -1.30015 -1.35525e-18, xmax 9.21572e-19 1.30015 3.6m 
gts area: 163.395 
yplus max: 117.485, yplus min: 0.0628242 
position of yplus max: -11.9525 1.25379 0.00584242 
yplus prom: 4.61025 
forces: 2925.317277 0.186929 -846.684785 
Drag coefficient: 0.816318 
torque (ref. CG): -0.261701 (roll) -1069.333001 (pitch) -1.140269 (yaw) 
----------------------------------------------------- 
step 44, time 0.030800, maxvel 30.000000, total vol 183256, vol(u>maxvel) 6.96155, cell count 2196152
bounding box (containing cells with vel>maxvel): xmin -12.2716 -1.78585 -0.473571, xmax 0.501054 1.78586 3.96148m 
bounding box of vehicle: xmin -12.2 -1.30015 -1.35525e-18, xmax 9.21572e-19 1.30015 3.6m 
gts area: 163.395 
yplus max: 117.487, yplus min: 0.0614825 
position of yplus max: -11.9525 1.25379 0.00584242 
yplus prom: 4.6116 
forces: 2917.627510 0.170427 -846.313041 
Drag coefficient: 0.814173 
torque (ref. CG): -0.238598 (roll) -1077.831037 (pitch) -1.039606 (yaw) 
----------------------------------------------------- 
step 45, time 0.031500, maxvel 30.000000, total vol 183256, vol(u>maxvel) 6.94066, cell count 2183793
bounding box (containing cells with vel>maxvel): xmin -12.2716 -1.7285 -0.473571, xmax 0.501054 1.72849 3.96148m 
bounding box of vehicle: xmin -12.2 -1.30015 -1.35525e-18, xmax 9.21572e-19 1.30015 3.6m 
gts area: 163.395 
yplus max: 117.488, yplus min: 0.0601273 
position of yplus max: -11.9525 1.25379 0.00584242 
yplus prom: 4.61265 
forces: 2909.710085 0.162763 -846.042995 
Drag coefficient: 0.811963 
torque (ref. CG): -0.227869 (roll) -1087.268151 (pitch) -0.992856 (yaw) 
----------------------------------------------------- 
step 46, time 0.032200, maxvel 30.000000, total vol 183256, vol(u>maxvel) 6.92237, cell count 2170418
bounding box (containing cells with vel>maxvel): xmin -12.2716 -1.72843 -0.473571, xmax 0.501054 1.72845 3.96148m 
bounding box of vehicle: xmin -12.2 -1.30015 -1.35525e-18, xmax 9.21572e-19 1.30015 3.6m 
gts area: 163.395 
yplus max: 117.489, yplus min: 0.0587494 
position of yplus max: -11.9525 1.25379 0.00584242 
yplus prom: 4.61342 
forces: 2901.628534 0.146953 -845.645676 
Drag coefficient: 0.809708 
torque (ref. CG): -0.205735 (roll) -1096.158673 (pitch) -0.896415 (yaw) 
----------------------------------------------------- 
step 47, time 0.032900, maxvel 30.000000, total vol 183256, vol(u>maxvel) 6.92389, cell count 2158457
bounding box (containing cells with vel>maxvel): xmin -12.2716 -1.72834 -0.473571, xmax 0.561219 1.72834 3.96148m 
bounding box of vehicle: xmin -12.2 -1.30015 -1.35525e-18, xmax 9.21572e-19 1.30015 3.6m 
gts area: 163.395 
yplus max: 117.488, yplus min: 0.054113 
position of yplus max: -11.9525 1.25379 0.00584242 
yplus prom: 4.61395 
forces: 2893.386259 0.136716 -845.377333 
Drag coefficient: 0.807408 
torque (ref. CG): -0.191402 (roll) -1106.060968 (pitch) -0.833967 (yaw) 
----------------------------------------------------- 
step 48, time 0.033600, maxvel 30.000000, total vol 183256, vol(u>maxvel) 6.91092, cell count 2145982
bounding box (containing cells with vel>maxvel): xmin -12.2716 -1.72828 -0.473571, xmax 0.5613 1.72829 3.96147m 
bounding box of vehicle: xmin -12.2 -1.30015 -1.35525e-18, xmax 9.21572e-19 1.30015 3.6m 
gts area: 163.395 
yplus max: 117.488, yplus min: 0.0559318 
position of yplus max: -11.9525 1.25379 0.00584242 
yplus prom: 4.61427 
forces: 2884.988987 0.122541 -845.031231 
Drag coefficient: 0.805065 
torque (ref. CG): -0.171558 (roll) -1115.705928 (pitch) -0.747503 (yaw) 
----------------------------------------------------- 
step 49, time 0.034300, maxvel 30.000000, total vol 183256, vol(u>maxvel) 6.90599, cell count 2132334
bounding box (containing cells with vel>maxvel): xmin -12.2716 -1.72828 -0.473571, xmax 0.562988 1.72829 3.95888m 
bounding box of vehicle: xmin -12.2 -1.30015 -1.35525e-18, xmax 9.21572e-19 1.30015 3.6m 
gts area: 163.395 
yplus max: 117.486, yplus min: 0.0544836 
position of yplus max: -11.9525 1.25379 0.00584242 
yplus prom: 4.61439 
forces: 2876.435921 0.111746 -844.735320 
Drag coefficient: 0.802678 
torque (ref. CG): -0.156445 (roll) -1125.875165 (pitch) -0.681653 (yaw) 
----------------------------------------------------- 
step 50, time 0.035000, maxvel 30.000000, total vol 183256, vol(u>maxvel) 6.90557, cell count 2117836
bounding box (containing cells with vel>maxvel): xmin -12.2716 -1.72828 -0.473571, xmax 0.563029 1.72829 3.95888m 
bounding box of vehicle: xmin -12.2 -1.30015 -1.35525e-18, xmax 9.21572e-19 1.30015 3.6m 
gts area: 163.395 
yplus max: 117.485, yplus min: 0.0530041 
position of yplus max: -11.9525 1.25379 0.00584242 
yplus prom: 4.61432 
forces: 2867.772397 0.103393 -844.463309 
Drag coefficient: 0.800260 
torque (ref. CG): -0.144750 (roll) -1136.344830 (pitch) -0.630698 (yaw) 
----------------------------------------------------- 
step 51, time 0.035700, maxvel 30.000000, total vol 183256, vol(u>maxvel) 6.88871, cell count 2102768
bounding box (containing cells with vel>maxvel): xmin -12.2716 -1.72828 -0.473571, xmax 0.563095 1.72829 3.95888m 
bounding box of vehicle: xmin -12.2 -1.30015 -1.35525e-18, xmax 9.21572e-19 1.30015 3.6m 
gts area: 163.395 
yplus max: 117.483, yplus min: 0.0514824 
position of yplus max: -11.9525 1.25379 0.00584242 
yplus prom: 4.61415 
forces: 2858.976955 0.088350 -844.122646 
Drag coefficient: 0.797806 
torque (ref. CG): -0.123690 (roll) -1146.580401 (pitch) -0.538936 (yaw) 
----------------------------------------------------- 
step 52, time 0.036400, maxvel 30.000000, total vol 183256, vol(u>maxvel) 6.86114, cell count 2087675
bounding box (containing cells with vel>maxvel): xmin -12.2716 -1.72826 -0.473571, xmax 0.563129 1.72829 3.95888m 
bounding box of vehicle: xmin -12.2 -1.30015 -1.35525e-18, xmax 9.21572e-19 1.30015 3.6m 
gts area: 163.395 
yplus max: 117.482, yplus min: 0.0499276 
position of yplus max: -11.9525 1.25379 0.00584242 
yplus prom: 4.61393 
forces: 2850.047639 0.076424 -843.867191 
Drag coefficient: 0.795314 
torque (ref. CG): -0.106994 (roll) -1157.523172 (pitch) -0.466189 (yaw) 
----------------------------------------------------- 
step 53, time 0.037100, maxvel 30.000000, total vol 183256, vol(u>maxvel) 6.8379, cell count 2073447
bounding box (containing cells with vel>maxvel): xmin -12.2716 -1.72826 -0.473571, xmax 0.56345 1.72829 3.95888m 
bounding box of vehicle: xmin -12.2 -1.30015 -1.35525e-18, xmax 9.21572e-19 1.30015 3.6m 
gts area: 163.395 
yplus max: 117.48, yplus min: 0.0483344 
position of yplus max: -11.9525 1.25379 0.00584242 
yplus prom: 4.6136 
forces: 2841.078763 0.068670 -843.643588 
Drag coefficient: 0.792811 
torque (ref. CG): -0.096139 (roll) -1168.715617 (pitch) -0.418889 (yaw) 
----------------------------------------------------- 
step 54, time 0.037800, maxvel 30.000000, total vol 183256, vol(u>maxvel) 6.82622, cell count 2059307
bounding box (containing cells with vel>maxvel): xmin -12.2716 -1.72824 -0.473571, xmax 0.563451 1.72825 3.95888m 
bounding box of vehicle: xmin -12.2 -1.30015 -1.35525e-18, xmax 9.21572e-19 1.30015 3.6m 
gts area: 163.395 
yplus max: 117.478, yplus min: 0.0466691 
position of yplus max: -11.9525 1.25379 0.00584242 
yplus prom: 4.61315 
forces: 2831.997670 0.047089 -843.120479 
Drag coefficient: 0.790277 
torque (ref. CG): -0.065924 (roll) -1178.238183 (pitch) -0.287240 (yaw) 
----------------------------------------------------- 
step 55, time 0.038500, maxvel 30.000000, total vol 183256, vol(u>maxvel) 6.81913, cell count 2044376
bounding box (containing cells with vel>maxvel): xmin -12.2716 -1.72824 -0.473571, xmax 0.563451 1.72825 3.95888m 
bounding box of vehicle: xmin -12.2 -1.30015 -1.35525e-18, xmax 9.21572e-19 1.30015 3.6m 
gts area: 163.395 
yplus max: 117.476, yplus min: 0.0449886 
position of yplus max: -11.9525 1.25379 0.00584242 
yplus prom: 4.61253 
forces: 2822.903570 0.051753 -843.279055 
Drag coefficient: 0.787740 
torque (ref. CG): -0.072454 (roll) -1191.937239 (pitch) -0.315691 (yaw) 
----------------------------------------------------- 
step 56, time 0.039200, maxvel 30.000000, total vol 183256, vol(u>maxvel) 6.80646, cell count 2027567
bounding box (containing cells with vel>maxvel): xmin -12.2716 -1.72824 -0.473571, xmax 0.624426 1.72825 3.95887m 
bounding box of vehicle: xmin -12.2 -1.30015 -1.35525e-18, xmax 9.21572e-19 1.30015 3.6m 
gts area: 163.395 
yplus max: 117.474, yplus min: 0.043181 
position of yplus max: -11.9525 1.25379 0.00584242 
yplus prom: 4.61175 
forces: 2813.653383 0.011219 -842.380147 
Drag coefficient: 0.785158 
torque (ref. CG): -0.015707 (roll) -1199.404158 (pitch) -0.068437 (yaw) 
----------------------------------------------------- 
step 57, time 0.039900, maxvel 30.000000, total vol 183256, vol(u>maxvel) 6.78459, cell count 2011330
bounding box (containing cells with vel>maxvel): xmin -12.2716 -1.72824 -0.473571, xmax 0.626246 1.72825 3.95885m 
bounding box of vehicle: xmin -12.2 -1.30015 -1.35525e-18, xmax 9.21572e-19 1.30015 3.6m 
gts area: 163.395 
yplus max: 117.472, yplus min: 0.0413872 
position of yplus max: -11.9525 1.25379 0.00584242 
yplus prom: 4.61082 
forces: 2804.438930 0.026071 -842.768109 
Drag coefficient: 0.782587 
torque (ref. CG): -0.036500 (roll) -1214.670964 (pitch) -0.159035 (yaw) 
----------------------------------------------------- 
step 58, time 0.040600, maxvel 30.000000, total vol 183256, vol(u>maxvel) 6.76972, cell count 1996463
bounding box (containing cells with vel>maxvel): xmin -12.2716 -1.72824 -0.473571, xmax 0.626398 1.72825 3.95676m 
bounding box of vehicle: xmin -12.2 -1.30015 -1.35525e-18, xmax 9.21572e-19 1.30015 3.6m 
gts area: 163.395 
yplus max: 117.47, yplus min: 0.0394377 
position of yplus max: -11.9525 1.25379 0.00584242 
yplus prom: 4.60977 
forces: 2795.115669 -0.004747 -842.130854 
Drag coefficient: 0.779985 
torque (ref. CG): 0.006646 (roll) -1223.836275 (pitch) 0.028958 (yaw) 
----------------------------------------------------- 
step 59, time 0.041300, maxvel 30.000000, total vol 183256, vol(u>maxvel) 6.75169, cell count 1981249
bounding box (containing cells with vel>maxvel): xmin -12.2716 -1.72824 -0.473571, xmax 0.626466 1.72825 3.95676m 
bounding box of vehicle: xmin -12.2 -1.30015 -1.35525e-18, xmax 9.21572e-19 1.30015 3.6m 
gts area: 163.395 
yplus max: 117.468, yplus min: 0.0374447 
position of yplus max: -11.9525 1.25379 0.00584242 
yplus prom: 4.60862 
forces: 2786.038970 -0.014668 -841.975749 
Drag coefficient: 0.777452 
torque (ref. CG): 0.020535 (roll) -1235.597513 (pitch) 0.089474 (yaw) 
----------------------------------------------------- 
step 60, time 0.042000, maxvel 30.000000, total vol 183256, vol(u>maxvel) 6.73856, cell count 1966925
bounding box (containing cells with vel>maxvel): xmin -12.2716 -1.72824 -0.473571, xmax 0.626466 1.72825 3.95676m 
bounding box of vehicle: xmin -12.2 -1.30015 -1.35525e-18, xmax 9.21572e-19 1.30015 3.6m 
gts area: 163.395 
yplus max: 117.466, yplus min: 0.0353253 
position of yplus max: -11.9525 1.25379 0.00584242 
yplus prom: 4.60735 
forces: 2777.014664 -0.046383 -841.575020 
Drag coefficient: 0.774934 
torque (ref. CG): 0.064936 (roll) -1245.787094 (pitch) 0.282935 (yaw) 
----------------------------------------------------- 
step 61, time 0.042700, maxvel 30.000000, total vol 183256, vol(u>maxvel) 6.71801, cell count 1953312
bounding box (containing cells with vel>maxvel): xmin -12.2716 -1.72824 -0.473571, xmax 0.626466 1.72825 3.95676m 
bounding box of vehicle: xmin -12.2 -1.30015 -1.35525e-18, xmax 9.21572e-19 1.30015 3.6m 
gts area: 163.395 
yplus max: 117.464, yplus min: 0.0331051 
position of yplus max: -11.9525 1.25379 0.00584242 
yplus prom: 4.60598 
forces: 2768.077969 -0.044405 -841.341170 
Drag coefficient: 0.772440 
torque (ref. CG): 0.062167 (roll) -1256.871982 (pitch) 0.270868 (yaw) 
----------------------------------------------------- 
step 62, time 0.043400, maxvel 30.000000, total vol 183256, vol(u>maxvel) 6.69766, cell count 1940353
bounding box (containing cells with vel>maxvel): xmin -12.2716 -1.72824 -0.473571, xmax 0.626466 1.72825 3.95676m 
bounding box of vehicle: xmin -12.2 -1.30015 -1.35525e-18, xmax 9.21572e-19 1.30015 3.6m 
gts area: 163.395 
yplus max: 117.462, yplus min: 0.0307552 
position of yplus max: -11.9525 1.25379 0.00584242 
yplus prom: 4.60451 
forces: 2759.298413 -0.075710 -841.053129 
Drag coefficient: 0.769990 
torque (ref. CG): 0.105994 (roll) -1267.406311 (pitch) 0.461831 (yaw) 
----------------------------------------------------- 
step 63, time 0.044100, maxvel 30.000000, total vol 183256, vol(u>maxvel) 6.67576, cell count 1925811
bounding box (containing cells with vel>maxvel): xmin -12.2716 -1.72824 -0.473571, xmax 0.626466 1.7282 3.95675m 
bounding box of vehicle: xmin -12.2 -1.30015 -1.35525e-18, xmax 9.21572e-19 1.30015 3.6m 
gts area: 163.395 
yplus max: 117.46, yplus min: 0.0282725 
position of yplus max: -11.9525 1.25379 0.00584242 
yplus prom: 4.60295 
forces: 2750.518783 -0.095377 -840.686347 
Drag coefficient: 0.767540 
torque (ref. CG): 0.133528 (roll) -1277.460420 (pitch) 0.581799 (yaw) 
----------------------------------------------------- 
step 64, time 0.044800, maxvel 30.000000, total vol 183256, vol(u>maxvel) 6.65437, cell count 1910727
bounding box (containing cells with vel>maxvel): xmin -12.2716 -1.72824 -0.473571, xmax 0.627139 1.7282 3.95675m 
bounding box of vehicle: xmin -12.2 -1.30015 -1.35525e-18, xmax 9.21572e-19 1.30015 3.6m 
gts area: 163.395 
yplus max: 117.458, yplus min: 0.0256789 
position of yplus max: -11.9525 1.25379 0.00584242 
yplus prom: 4.60129 
forces: 2741.839000 -0.116175 -840.344709 
Drag coefficient: 0.765118 
torque (ref. CG): 0.162645 (roll) -1287.528127 (pitch) 0.708666 (yaw) 
----------------------------------------------------- 
step 65, time 0.045500, maxvel 30.000000, total vol 183256, vol(u>maxvel) 6.63528, cell count 1894694
bounding box (containing cells with vel>maxvel): xmin -12.2716 -1.72824 -0.473571, xmax 0.687573 1.7282 3.95652m 
bounding box of vehicle: xmin -12.2 -1.30015 -1.35525e-18, xmax 9.21572e-19 1.30015 3.6m 
gts area: 163.395 
yplus max: 117.456, yplus min: 0.0230622 
position of yplus max: -11.9525 1.25379 0.00584242 
yplus prom: 4.59953 
forces: 2733.346100 -0.138890 -840.007761 
Drag coefficient: 0.762748 
torque (ref. CG): 0.194446 (roll) -1297.362799 (pitch) 0.847229 (yaw) 
----------------------------------------------------- 
step 66, time 0.046200, maxvel 30.000000, total vol 183256, vol(u>maxvel) 6.62243, cell count 1880237
bounding box (containing cells with vel>maxvel): xmin -12.2716 -1.72824 -0.473571, xmax 0.689674 1.7282 3.95652m 
bounding box of vehicle: xmin -12.2 -1.30015 -1.35525e-18, xmax 9.21572e-19 1.30015 3.6m 
gts area: 163.395 
yplus max: 117.454, yplus min: 0.0206918 
position of yplus max: -11.9525 1.25379 0.00584242 
yplus prom: 4.59768 
forces: 2725.029592 -0.162416 -839.600707 
Drag coefficient: 0.760428 
torque (ref. CG): 0.227382 (roll) -1306.522885 (pitch) 0.990735 (yaw) 
----------------------------------------------------- 
step 67, time 0.046900, maxvel 30.000000, total vol 183256, vol(u>maxvel) 6.5995, cell count 1867217
bounding box (containing cells with vel>maxvel): xmin -12.2716 -1.72824 -0.473571, xmax 0.689811 1.7282 3.95652m 
bounding box of vehicle: xmin -12.2 -1.30015 -1.35525e-18, xmax 9.21572e-19 1.30015 3.6m 
gts area: 163.395 
yplus max: 117.453, yplus min: 0.0192497 
position of yplus max: -11.9525 1.25379 0.00584242 
yplus prom: 4.59577 
forces: 2716.829495 -0.186750 -839.184115 
Drag coefficient: 0.758139 
torque (ref. CG): 0.261450 (roll) -1315.461810 (pitch) 1.139173 (yaw) 
----------------------------------------------------- 
step 68, time 0.047600, maxvel 30.000000, total vol 183256, vol(u>maxvel) 6.58334, cell count 1853864
bounding box (containing cells with vel>maxvel): xmin -12.2716 -1.72819 -0.473571, xmax 0.689854 1.7282 3.95633m 
bounding box of vehicle: xmin -12.2 -1.30015 -1.35525e-18, xmax 9.21572e-19 1.30015 3.6m 
gts area: 163.395 
yplus max: 117.451, yplus min: 0.0195355 
position of yplus max: -11.9525 1.25379 0.00584242 
yplus prom: 4.59378 
forces: 2708.748087 -0.213051 -838.791046 
Drag coefficient: 0.755884 
torque (ref. CG): 0.298271 (roll) -1324.378058 (pitch) 1.299608 (yaw) 
----------------------------------------------------- 
step 69, time 0.048300, maxvel 30.000000, total vol 183256, vol(u>maxvel) 6.55846, cell count 1841592
bounding box (containing cells with vel>maxvel): xmin -12.2716 -1.72819 -0.473571, xmax 0.689895 1.7282 3.95633m 
bounding box of vehicle: xmin -12.2 -1.30015 -1.35525e-18, xmax 9.21572e-19 1.30015 3.6m 
gts area: 163.395 
yplus max: 117.449, yplus min: 0.0213873 
position of yplus max: -11.9525 1.25379 0.00584242 
yplus prom: 4.59172 
forces: 2700.793272 -0.237955 -838.336769 
Drag coefficient: 0.753664 
torque (ref. CG): 0.333137 (roll) -1332.743711 (pitch) 1.451528 (yaw) 
----------------------------------------------------- 
step 70, time 0.049000, maxvel 30.000000, total vol 183256, vol(u>maxvel) 6.52997, cell count 1827879
bounding box (containing cells with vel>maxvel): xmin -12.2716 -1.72819 -0.473571, xmax 0.689895 1.7282 3.95633m 
bounding box of vehicle: xmin -12.2 -1.30015 -1.35525e-18, xmax 9.21572e-19 1.30015 3.6m 
gts area: 163.395 
yplus max: 117.447, yplus min: 0.0239463 
position of yplus max: -11.9525 1.25379 0.00584242 
yplus prom: 4.5896 
forces: 2692.960740 -0.269736 -837.913385 
Drag coefficient: 0.751479 
torque (ref. CG): 0.377631 (roll) -1341.126616 (pitch) 1.645391 (yaw) 
----------------------------------------------------- 
step 71, time 0.049700, maxvel 30.000000, total vol 183256, vol(u>maxvel) 6.50347, cell count 1815337
bounding box (containing cells with vel>maxvel): xmin -12.2716 -1.72819 -0.473571, xmax 0.689895 1.7282 3.95632m 
bounding box of vehicle: xmin -12.2 -1.30015 -1.35525e-18, xmax 9.21572e-19 1.30015 3.6m 
gts area: 163.395 
yplus max: 117.446, yplus min: 0.0266741 
position of yplus max: -11.9525 1.25379 0.00584242 
yplus prom: 4.58744 
forces: 2685.242952 -0.287197 -837.411513 
Drag coefficient: 0.749325 
torque (ref. CG): 0.402076 (roll) -1348.870096 (pitch) 1.751903 (yaw) 
----------------------------------------------------- 
step 72, time 0.050400, maxvel 30.000000, total vol 183256, vol(u>maxvel) 6.47656, cell count 1801194
bounding box (containing cells with vel>maxvel): xmin -12.2716 -1.72819 -0.473571, xmax 0.689895 1.7282 3.95605m 
bounding box of vehicle: xmin -12.2 -1.30015 -1.35525e-18, xmax 9.21572e-19 1.30015 3.6m 
gts area: 163.395 
yplus max: 117.444, yplus min: 0.0293456 
position of yplus max: -11.9525 1.25379 0.00584242 
yplus prom: 4.58522 
forces: 2677.684437 -0.321805 -836.935212 
Drag coefficient: 0.747216 
torque (ref. CG): 0.450527 (roll) -1356.546581 (pitch) 1.963012 (yaw) 
----------------------------------------------------- 
step 73, time 0.051100, maxvel 30.000000, total vol 183256, vol(u>maxvel) 6.45219, cell count 1788207
bounding box (containing cells with vel>maxvel): xmin -12.2716 -1.72819 -0.473571, xmax 0.689895 1.7282 3.95605m 
bounding box of vehicle: xmin -12.2 -1.30015 -1.35525e-18, xmax 9.21572e-19 1.30015 3.6m 
gts area: 163.395 
yplus max: 117.442, yplus min: 0.031908 
position of yplus max: -11.9525 1.25379 0.00584242 
yplus prom: 4.58294 
forces: 2670.225078 -0.349492 -836.488278 
Drag coefficient: 0.745134 
torque (ref. CG): 0.489289 (roll) -1364.263384 (pitch) 2.131901 (yaw) 
----------------------------------------------------- 
step 74, time 0.051800, maxvel 30.000000, total vol 183256, vol(u>maxvel) 6.43251, cell count 1775685
bounding box (containing cells with vel>maxvel): xmin -12.2716 -1.72819 -0.473571, xmax 0.749839 1.7282 3.95605m 
bounding box of vehicle: xmin -12.2 -1.30015 -1.35525e-18, xmax 9.21572e-19 1.30015 3.6m 
gts area: 163.395 
yplus max: 117.44, yplus min: 0.0343516 
position of yplus max: -11.9525 1.25379 0.00584242 
yplus prom: 4.58062 
forces: 2662.877333 -0.380824 -835.975613 
Drag coefficient: 0.743084 
torque (ref. CG): 0.533154 (roll) -1371.422975 (pitch) 2.323027 (yaw) 
----------------------------------------------------- 
step 75, time 0.052500, maxvel 30.000000, total vol 183256, vol(u>maxvel) 6.40757, cell count 1763870
bounding box (containing cells with vel>maxvel): xmin -12.2716 -1.72819 -0.473571, xmax 0.75189 1.7282 3.89984m 
bounding box of vehicle: xmin -12.2 -1.30015 -1.35525e-18, xmax 9.21572e-19 1.30015 3.6m 
gts area: 163.395 
yplus max: 117.439, yplus min: 0.0366813 
position of yplus max: -11.9525 1.25379 0.00584242 
yplus prom: 4.57825 
forces: 2655.646699 -0.411292 -835.479814 
Drag coefficient: 0.741066 
torque (ref. CG): 0.575808 (roll) -1378.521489 (pitch) 2.508879 (yaw) 
----------------------------------------------------- 
step 76, time 0.053200, maxvel 30.000000, total vol 183256, vol(u>maxvel) 6.3824, cell count 1751997
bounding box (containing cells with vel>maxvel): xmin -12.2716 -1.72819 -0.473571, xmax 0.752041 1.7282 3.89984m 
bounding box of vehicle: xmin -12.2 -1.30015 -1.35525e-18, xmax 9.21572e-19 1.30015 3.6m 
gts area: 163.395 
yplus max: 117.437, yplus min: 0.0389055 
position of yplus max: -11.9525 1.25379 0.00584242 
yplus prom: 4.57584 
forces: 2648.500098 -0.438828 -834.995779 
Drag coefficient: 0.739072 
torque (ref. CG): 0.614359 (roll) -1385.574116 (pitch) 2.676852 (yaw) 
----------------------------------------------------- 
step 77, time 0.053900, maxvel 30.000000, total vol 183256, vol(u>maxvel) 6.36479, cell count 1738755
bounding box (containing cells with vel>maxvel): xmin -12.2716 -1.72819 -0.473571, xmax 0.752087 1.72817 3.89984m 
bounding box of vehicle: xmin -12.2 -1.30015 -1.35525e-18, xmax 9.21572e-19 1.30015 3.6m 
gts area: 163.395 
yplus max: 117.435, yplus min: 0.0370299 
position of yplus max: -11.9525 1.25379 0.00584242 
yplus prom: 4.57338 
forces: 2641.527362 -0.481321 -834.418416 
Drag coefficient: 0.737126 
torque (ref. CG): 0.673849 (roll) -1391.814028 (pitch) 2.936057 (yaw) 
----------------------------------------------------- 
step 78, time 0.054600, maxvel 30.000000, total vol 183256, vol(u>maxvel) 6.34707, cell count 1726179
bounding box (containing cells with vel>maxvel): xmin -12.2717 -1.72819 -0.473571, xmax 0.752132 1.72817 3.89984m 
bounding box of vehicle: xmin -12.2 -1.30015 -1.35525e-18, xmax 9.21572e-19 1.30015 3.6m 
gts area: 163.395 
yplus max: 117.433, yplus min: 0.00573664 
position of yplus max: -11.9525 1.25379 0.00584242 
yplus prom: 4.57086 
forces: 2634.600303 -0.505548 -833.935913 
Drag coefficient: 0.735193 
torque (ref. CG): 0.707768 (roll) -1398.568644 (pitch) 3.083845 (yaw) 
----------------------------------------------------- 
step 79, time 0.055300, maxvel 30.000000, total vol 183256, vol(u>maxvel) 6.31807, cell count 1714109
bounding box (containing cells with vel>maxvel): xmin -12.2717 -1.72819 -0.473571, xmax 0.752175 1.72817 3.89984m 
bounding box of vehicle: xmin -12.2 -1.30015 -1.35525e-18, xmax 9.21572e-19 1.30015 3.6m 
gts area: 163.395 
yplus max: 117.431, yplus min: 0.0450794 
position of yplus max: -11.9525 1.25379 0.00584242 
yplus prom: 4.56831 
forces: 2627.770111 -0.547227 -833.388312 
Drag coefficient: 0.733287 
torque (ref. CG): 0.766118 (roll) -1404.790548 (pitch) 3.338087 (yaw) 
----------------------------------------------------- 
step 80, time 0.056000, maxvel 30.000000, total vol 183256, vol(u>maxvel) 6.2943, cell count 1701826
bounding box (containing cells with vel>maxvel): xmin -12.2717 -1.72819 -0.473571, xmax 0.752232 1.72817 3.89984m 
bounding box of vehicle: xmin -12.2 -1.30015 -1.35525e-18, xmax 9.21572e-19 1.30015 3.6m 
gts area: 163.395 
yplus max: 117.43, yplus min: 0.0469964 
position of yplus max: -11.9525 1.25379 0.00584242 
yplus prom: 4.56571 
forces: 2621.036835 -0.580086 -832.845533 
Drag coefficient: 0.731408 
torque (ref. CG): 0.812120 (roll) -1410.906184 (pitch) 3.538524 (yaw) 
----------------------------------------------------- 
step 81, time 0.056700, maxvel 30.000000, total vol 183256, vol(u>maxvel) 6.25944, cell count 1688006
bounding box (containing cells with vel>maxvel): xmin -12.2717 -1.72819 -0.473571, xmax 0.752273 1.72817 3.89984m 
bounding box of vehicle: xmin -12.2 -1.30015 -1.35525e-18, xmax 9.21572e-19 1.30015 3.6m 
gts area: 163.395 
yplus max: 117.428, yplus min: 0.0488559 
position of yplus max: -11.9525 1.25379 0.00584242 
yplus prom: 4.56307 
forces: 2614.377819 -0.618467 -832.307047 
Drag coefficient: 0.729550 
torque (ref. CG): 0.865854 (roll) -1416.944039 (pitch) 3.772648 (yaw) 
----------------------------------------------------- 
step 82, time 0.057400, maxvel 30.000000, total vol 183256, vol(u>maxvel) 6.23217, cell count 1673920
bounding box (containing cells with vel>maxvel): xmin -12.2717 -1.72819 -0.473571, xmax 0.752273 1.72815 3.89984m 
bounding box of vehicle: xmin -12.2 -1.30015 -1.35525e-18, xmax 9.21572e-19 1.30015 3.6m 
gts area: 163.395 
yplus max: 117.426, yplus min: 0.050663 
position of yplus max: -11.9525 1.25379 0.00584242 
yplus prom: 4.56038 
forces: 2607.805152 -0.652745 -831.778856 
Drag coefficient: 0.727716 
torque (ref. CG): 0.913843 (roll) -1422.923808 (pitch) 3.981745 (yaw) 
----------------------------------------------------- 
step 83, time 0.058100, maxvel 30.000000, total vol 183256, vol(u>maxvel) 6.20944, cell count 1662932
bounding box (containing cells with vel>maxvel): xmin -12.2717 -1.72819 -0.473571, xmax 0.812068 1.72815 3.89984m 
bounding box of vehicle: xmin -12.2 -1.30015 -1.35525e-18, xmax 9.21572e-19 1.30015 3.6m 
gts area: 163.395 
yplus max: 117.424, yplus min: 0.0451256 
position of yplus max: -11.9525 1.25379 0.00584242 
yplus prom: 4.55765 
forces: 2601.318511 -0.690876 -831.228624 
Drag coefficient: 0.725906 
torque (ref. CG): 0.967226 (roll) -1428.648688 (pitch) 4.214341 (yaw) 
----------------------------------------------------- 
step 84, time 0.058800, maxvel 30.000000, total vol 183256, vol(u>maxvel) 6.18877, cell count 1653345
bounding box (containing cells with vel>maxvel): xmin -12.2717 -1.72817 -0.473571, xmax 0.812146 1.72815 3.89984m 
bounding box of vehicle: xmin -12.2 -1.30015 -1.35525e-18, xmax 9.21572e-19 1.30015 3.6m 
gts area: 163.395 
yplus max: 117.422, yplus min: 0.0541412 
position of yplus max: -11.9525 1.25379 0.00584242 
yplus prom: 4.5549 
forces: 2594.891463 -0.728583 -830.686422 
Drag coefficient: 0.724112 
torque (ref. CG): 1.020016 (roll) -1434.339124 (pitch) 4.444357 (yaw) 
----------------------------------------------------- 
step 85, time 0.059500, maxvel 30.000000, total vol 183256, vol(u>maxvel) 6.16796, cell count 1644459
bounding box (containing cells with vel>maxvel): xmin -12.2717 -1.72817 -0.473571, xmax 0.814154 1.72815 3.89984m 
bounding box of vehicle: xmin -12.2 -1.30015 -1.35525e-18, xmax 9.21572e-19 1.30015 3.6m 
gts area: 163.395 
yplus max: 117.42, yplus min: 0.0558191 
position of yplus max: -11.9525 1.25379 0.00584242 
yplus prom: 4.5521 
forces: 2588.531966 -0.766176 -830.149809 
Drag coefficient: 0.722338 
torque (ref. CG): 1.072647 (roll) -1439.969081 (pitch) 4.673676 (yaw) 
----------------------------------------------------- 
step 86, time 0.060200, maxvel 30.000000, total vol 183256, vol(u>maxvel) 6.14443, cell count 1636386
bounding box (containing cells with vel>maxvel): xmin -12.2717 -1.72817 -0.473571, xmax 0.814261 1.72815 3.89984m 
bounding box of vehicle: xmin -12.2 -1.30015 -1.35525e-18, xmax 9.21572e-19 1.30015 3.6m 
gts area: 163.395 
yplus max: 117.419, yplus min: 0.0574614 
position of yplus max: -11.9525 1.25379 0.00584242 
yplus prom: 4.54928 
forces: 2582.220650 -0.803608 -829.594719 
Drag coefficient: 0.720576 
torque (ref. CG): 1.125051 (roll) -1445.418876 (pitch) 4.902007 (yaw) 
----------------------------------------------------- 
step 87, time 0.060900, maxvel 30.000000, total vol 183256, vol(u>maxvel) 6.12261, cell count 1628685
bounding box (containing cells with vel>maxvel): xmin -12.2717 -1.72817 -0.473571, xmax 0.814311 1.72815 3.89984m 
bounding box of vehicle: xmin -12.2 -1.30015 -1.35525e-18, xmax 9.21572e-19 1.30015 3.6m 
gts area: 163.395 
yplus max: 117.417, yplus min: 0.0535378 
position of yplus max: -11.9525 1.25379 0.00584242 
yplus prom: 4.54643 
forces: 2575.986545 -0.846174 -829.066611 
Drag coefficient: 0.718837 
torque (ref. CG): 1.184644 (roll) -1450.925163 (pitch) 5.161662 (yaw) 
----------------------------------------------------- 
step 88, time 0.061600, maxvel 30.000000, total vol 183256, vol(u>maxvel) 6.10058, cell count 1621517
bounding box (containing cells with vel>maxvel): xmin -12.2717 -1.72817 -0.473571, xmax 0.81436 1.72815 3.89935m 
bounding box of vehicle: xmin -12.2 -1.30015 -1.35525e-18, xmax 9.21572e-19 1.30015 3.6m 
gts area: 163.395 
yplus max: 117.415, yplus min: 0.0606493 
position of yplus max: -11.9525 1.25379 0.00584242 
yplus prom: 4.54355 
forces: 2569.808470 -0.874879 -828.455426 
Drag coefficient: 0.717113 
torque (ref. CG): 1.224831 (roll) -1455.846242 (pitch) 5.336763 (yaw) 
----------------------------------------------------- 
step 89, time 0.062300, maxvel 30.000000, total vol 183256, vol(u>maxvel) 6.07559, cell count 1614563
bounding box (containing cells with vel>maxvel): xmin -12.2717 -1.72817 -0.473571, xmax 0.814407 1.72815 3.89935m 
bounding box of vehicle: xmin -12.2 -1.30015 -1.35525e-18, xmax 9.21572e-19 1.30015 3.6m 
gts area: 163.395 
yplus max: 117.413, yplus min: 0.0621978 
position of yplus max: -11.9525 1.25379 0.00584242 
yplus prom: 4.54066 
forces: 2563.705957 -0.929757 -827.891931 
Drag coefficient: 0.715410 
torque (ref. CG): 1.301659 (roll) -1460.952442 (pitch) 5.671516 (yaw) 
----------------------------------------------------- 
step 90, time 0.063000, maxvel 30.000000, total vol 183256, vol(u>maxvel) 6.05489, cell count 1607926
bounding box (containing cells with vel>maxvel): xmin -12.2717 -1.72817 -0.473571, xmax 0.814452 1.72815 3.89935m 
bounding box of vehicle: xmin -12.2 -1.30015 -1.35525e-18, xmax 9.21572e-19 1.30015 3.6m 
gts area: 163.395 
yplus max: 117.411, yplus min: 0.0625451 
position of yplus max: -11.9525 1.25379 0.00584242 
yplus prom: 4.53776 
forces: 2557.656505 -0.940724 -827.351479 
Drag coefficient: 0.713722 
torque (ref. CG): 1.317014 (roll) -1466.124916 (pitch) 5.738416 (yaw) 
----------------------------------------------------- 
step 91, time 0.063700, maxvel 30.000000, total vol 183256, vol(u>maxvel) 6.03696, cell count 1601500
bounding box (containing cells with vel>maxvel): xmin -12.2717 -1.72817 -0.473571, xmax 0.814452 1.72815 3.89935m 
bounding box of vehicle: xmin -12.2 -1.30015 -1.35525e-18, xmax 9.21572e-19 1.30015 3.6m 
gts area: 163.395 
yplus max: 117.409, yplus min: 0.0625358 
position of yplus max: -11.9525 1.25379 0.00584242 
yplus prom: 4.53484 
forces: 2551.677477 -1.001505 -826.708051 
Drag coefficient: 0.712053 
torque (ref. CG): 1.402107 (roll) -1470.570642 (pitch) 6.109181 (yaw) 
----------------------------------------------------- 
step 92, time 0.064400, maxvel 30.000000, total vol 183256, vol(u>maxvel) 6.0198, cell count 1595196
bounding box (containing cells with vel>maxvel): xmin -12.2717 -1.72817 -0.473571, xmax 0.814511 1.72815 3.89935m 
bounding box of vehicle: xmin -12.2 -1.30015 -1.35525e-18, xmax 9.21572e-19 1.30015 3.6m 
gts area: 163.395 
yplus max: 117.407, yplus min: 0.0626211 
position of yplus max: -11.9525 1.25379 0.00584242 
yplus prom: 4.53192 
forces: 2545.751912 -1.014478 -826.174011 
Drag coefficient: 0.710400 
torque (ref. CG): 1.420269 (roll) -1475.608794 (pitch) 6.188314 (yaw) 
----------------------------------------------------- 
step 93, time 0.065100, maxvel 30.000000, total vol 183256, vol(u>maxvel) 6.00225, cell count 1589305
bounding box (containing cells with vel>maxvel): xmin -12.2717 -1.72817 -0.473571, xmax 0.874376 1.72815 3.89935m 
bounding box of vehicle: xmin -12.2 -1.30015 -1.35525e-18, xmax 9.21572e-19 1.30015 3.6m 
gts area: 163.395 
yplus max: 117.405, yplus min: 0.0627972 
position of yplus max: -11.9525 1.25379 0.00584242 
yplus prom: 4.529 
forces: 2539.906762 -1.077945 -825.515807 
Drag coefficient: 0.708769 
torque (ref. CG): 1.509123 (roll) -1479.776955 (pitch) 6.575462 (yaw) 
----------------------------------------------------- 
step 94, time 0.065800, maxvel 30.000000, total vol 183256, vol(u>maxvel) 5.98904, cell count 1583777
bounding box (containing cells with vel>maxvel): xmin -12.2717 -1.72814 -0.473571, xmax 0.874457 1.72815 3.89935m 
bounding box of vehicle: xmin -12.2 -1.30015 -1.35525e-18, xmax 9.21572e-19 1.30015 3.6m 
gts area: 163.395 
yplus max: 117.404, yplus min: 0.0630676 
position of yplus max: -11.9525 1.25379 0.00584242 
yplus prom: 4.52609 
forces: 2534.111266 -1.078553 -824.999710 
Drag coefficient: 0.707151 
torque (ref. CG): 1.509974 (roll) -1484.742459 (pitch) 6.579171 (yaw) 
----------------------------------------------------- 
step 95, time 0.066500, maxvel 30.000000, total vol 183256, vol(u>maxvel) 5.9745, cell count 1578491
bounding box (containing cells with vel>maxvel): xmin -12.2717 -1.72814 -0.473571, xmax 0.874496 1.72812 3.89935m 
bounding box of vehicle: xmin -12.2 -1.30015 -1.35525e-18, xmax 9.21572e-19 1.30015 3.6m 
gts area: 163.395 
yplus max: 117.402, yplus min: 0.0176812 
position of yplus max: -11.9525 1.25379 0.00584242 
yplus prom: 4.52317 
forces: 2528.375446 -1.111826 -824.272030 
Drag coefficient: 0.705551 
torque (ref. CG): 1.556557 (roll) -1488.333762 (pitch) 6.782140 (yaw) 
----------------------------------------------------- 
step 96, time 0.067200, maxvel 30.000000, total vol 183256, vol(u>maxvel) 5.9534, cell count 1573350
bounding box (containing cells with vel>maxvel): xmin -12.2717 -1.72814 -0.473571, xmax 0.876421 1.72812 3.89935m 
bounding box of vehicle: xmin -12.2 -1.30015 -1.35525e-18, xmax 9.21572e-19 1.30015 3.6m 
gts area: 163.395 
yplus max: 117.4, yplus min: 0.0638828 
position of yplus max: -11.9525 1.25379 0.00584242 
yplus prom: 4.52027 
forces: 2522.705538 -1.152648 -823.625377 
Drag coefficient: 0.703968 
torque (ref. CG): 1.613707 (roll) -1492.327049 (pitch) 7.031153 (yaw) 
----------------------------------------------------- 
step 97, time 0.067900, maxvel 30.000000, total vol 183256, vol(u>maxvel) 5.9377, cell count 1568258
bounding box (containing cells with vel>maxvel): xmin -12.2717 -1.72814 -0.473571, xmax 0.876532 1.72812 3.89935m 
bounding box of vehicle: xmin -12.2 -1.30015 -1.35525e-18, xmax 9.21572e-19 1.30015 3.6m 
gts area: 163.395 
yplus max: 117.398, yplus min: 0.0644191 
position of yplus max: -11.9525 1.25379 0.00584242 
yplus prom: 4.51738 
forces: 2517.075224 -1.162660 -823.008054 
Drag coefficient: 0.702397 
torque (ref. CG): 1.627724 (roll) -1496.443813 (pitch) 7.092225 (yaw) 
----------------------------------------------------- 
step 98, time 0.068600, maxvel 30.000000, total vol 183256, vol(u>maxvel) 5.92291, cell count 1563205
bounding box (containing cells with vel>maxvel): xmin -12.2717 -1.72814 -0.473571, xmax 0.876585 1.72812 3.89935m 
bounding box of vehicle: xmin -12.2 -1.30015 -1.35525e-18, xmax 9.21572e-19 1.30015 3.6m 
gts area: 163.395 
yplus max: 117.396, yplus min: 0.0650361 
position of yplus max: -11.9525 1.25379 0.00584242 
yplus prom: 4.5145 
forces: 2511.512707 -1.187672 -822.356559 
Drag coefficient: 0.700845 
torque (ref. CG): 1.662740 (roll) -1500.257219 (pitch) 7.244797 (yaw) 
----------------------------------------------------- 
step 99, time 0.069300, maxvel 30.000000, total vol 183256, vol(u>maxvel) 5.90116, cell count 1558427
bounding box (containing cells with vel>maxvel): xmin -12.2717 -1.72814 -0.473571, xmax 0.876635 1.72812 3.89935m 
bounding box of vehicle: xmin -12.2 -1.30015 -1.35525e-18, xmax 9.21572e-19 1.30015 3.6m 
gts area: 163.395 
yplus max: 117.394, yplus min: 0.0657284 
position of yplus max: -11.9525 1.25379 0.00584242 
yplus prom: 4.51163 
forces: 2505.962612 -1.206239 -821.652357 
Drag coefficient: 0.699296 
torque (ref. CG): 1.688735 (roll) -1503.731721 (pitch) 7.358061 (yaw) 
----------------------------------------------------- 
step 100, time 0.070000, maxvel 30.000000, total vol 183256, vol(u>maxvel) 5.88219, cell count 1553634
bounding box (containing cells with vel>maxvel): xmin -12.2717 -1.72814 -0.473571, xmax 0.876635 1.72812 3.89935m 
bounding box of vehicle: xmin -12.2 -1.30015 -1.35525e-18, xmax 9.21572e-19 1.30015 3.6m 
gts area: 163.395 
yplus max: 117.392, yplus min: 0.0664912 
position of yplus max: -11.9525 1.25379 0.00584242 
yplus prom: 4.50879 
forces: 2500.486397 -1.209532 -820.999678 
Drag coefficient: 0.697768 
torque (ref. CG): 1.693345 (roll) -1507.417080 (pitch) 7.378146 (yaw) 
----------------------------------------------------- 
step 101, time 0.070700, maxvel 30.000000, total vol 183256, vol(u>maxvel) 5.85874, cell count 1549024
bounding box (containing cells with vel>maxvel): xmin -12.2717 -1.72814 -0.473571, xmax 0.876684 1.72812 3.89935m 
bounding box of vehicle: xmin -12.2 -1.30015 -1.35525e-18, xmax 9.21572e-19 1.30015 3.6m 
gts area: 163.395 
yplus max: 117.39, yplus min: 0.0673184 
position of yplus max: -11.9525 1.25379 0.00584242 
yplus prom: 4.50596 
forces: 2495.042165 -1.245625 -820.212955 
Drag coefficient: 0.696249 
torque (ref. CG): 1.743875 (roll) -1510.239993 (pitch) 7.598311 (yaw) 
----------------------------------------------------- 
step 102, time 0.071400, maxvel 30.000000, total vol 183256, vol(u>maxvel) 5.83366, cell count 1544439
bounding box (containing cells with vel>maxvel): xmin -12.2717 -1.72814 -0.473571, xmax 0.876684 1.72812 3.89935m 
bounding box of vehicle: xmin -12.2 -1.30015 -1.35525e-18, xmax 9.21572e-19 1.30015 3.6m 
gts area: 163.395 
yplus max: 117.389, yplus min: 0.0662306 
position of yplus max: -11.9525 1.25379 0.00584242 
yplus prom: 4.50316 
forces: 2489.637854 -1.214411 -819.597944 
Drag coefficient: 0.694741 
torque (ref. CG): 1.700175 (roll) -1514.054461 (pitch) 7.407907 (yaw) 
----------------------------------------------------- 
step 103, time 0.072100, maxvel 30.000000, total vol 183256, vol(u>maxvel) 5.81186, cell count 1540038
bounding box (containing cells with vel>maxvel): xmin -12.2717 -1.72814 -0.473571, xmax 0.936641 1.72812 3.89935m 
bounding box of vehicle: xmin -12.2 -1.30015 -1.35525e-18, xmax 9.21572e-19 1.30015 3.6m 
gts area: 163.395 
yplus max: 117.387, yplus min: 0.0644019 
position of yplus max: -11.9525 1.25379 0.00584242 
yplus prom: 4.50038 
forces: 2484.283752 -1.250752 -818.748368 
Drag coefficient: 0.693247 
torque (ref. CG): 1.751053 (roll) -1516.367789 (pitch) 7.629588 (yaw) 
----------------------------------------------------- 
step 104, time 0.072800, maxvel 30.000000, total vol 183256, vol(u>maxvel) 5.7961, cell count 1535600
bounding box (containing cells with vel>maxvel): xmin -12.2717 -1.72814 -0.473571, xmax 0.936729 1.72812 3.89935m 
bounding box of vehicle: xmin -12.2 -1.30015 -1.35525e-18, xmax 9.21572e-19 1.30015 3.6m 
gts area: 163.395 
yplus max: 117.385, yplus min: 0.0625201 
position of yplus max: -11.9525 1.25379 0.00584242 
yplus prom: 4.49762 
forces: 2478.963836 -1.237709 -818.033011 
Drag coefficient: 0.691762 
torque (ref. CG): 1.732793 (roll) -1519.451997 (pitch) 7.550026 (yaw) 
----------------------------------------------------- 
step 105, time 0.073500, maxvel 30.000000, total vol 183256, vol(u>maxvel) 5.78385, cell count 1531236
bounding box (containing cells with vel>maxvel): xmin -12.2717 -1.72814 -0.473571, xmax 0.93677 1.72812 3.89935m 
bounding box of vehicle: xmin -12.2 -1.30015 -1.35525e-18, xmax 9.21572e-19 1.30015 3.6m 
gts area: 163.395 
yplus max: 117.383, yplus min: 0.0605775 
position of yplus max: -11.9525 1.25379 0.00584242 
yplus prom: 4.49489 
forces: 2473.680379 -1.242547 -817.239211 
Drag coefficient: 0.690288 
torque (ref. CG): 1.739565 (roll) -1522.006657 (pitch) 7.579534 (yaw) 
----------------------------------------------------- 
step 106, time 0.074200, maxvel 30.000000, total vol 183256, vol(u>maxvel) 5.75883, cell count 1526887
bounding box (containing cells with vel>maxvel): xmin -12.2717 -1.72814 -0.473571, xmax 0.93681 1.72812 3.89935m 
bounding box of vehicle: xmin -12.2 -1.30015 -1.35525e-18, xmax 9.21572e-19 1.30015 3.6m 
gts area: 163.395 
yplus max: 117.381, yplus min: 0.0585673 
position of yplus max: -11.9525 1.25379 0.00584242 
yplus prom: 4.49218 
forces: 2468.434595 -1.242364 -816.426911 
Drag coefficient: 0.688824 
torque (ref. CG): 1.739309 (roll) -1524.395726 (pitch) 7.578420 (yaw) 
----------------------------------------------------- 
step 107, time 0.074900, maxvel 30.000000, total vol 183256, vol(u>maxvel) 5.73843, cell count 1522451
bounding box (containing cells with vel>maxvel): xmin -12.2717 -1.72814 -0.473571, xmax 0.936862 1.72812 3.89935m 
bounding box of vehicle: xmin -12.2 -1.30015 -1.35525e-18, xmax 9.21572e-19 1.30015 3.6m 
gts area: 163.395 
yplus max: 117.379, yplus min: 0.0564912 
position of yplus max: -11.9525 1.25379 0.00584242 
yplus prom: 4.4895 
forces: 2463.228474 -1.251254 -815.582567 
Drag coefficient: 0.687371 
torque (ref. CG): 1.751755 (roll) -1526.533798 (pitch) 7.632647 (yaw) 
----------------------------------------------------- 
step 108, time 0.075600, maxvel 30.000000, total vol 183256, vol(u>maxvel) 5.72294, cell count 1518267
bounding box (containing cells with vel>maxvel): xmin -12.2717 -1.72814 -0.473571, xmax 0.938381 1.72812 3.89934m 
bounding box of vehicle: xmin -12.2 -1.30015 -1.35525e-18, xmax 9.21572e-19 1.30015 3.6m 
gts area: 163.395 
yplus max: 117.377, yplus min: 0.0543438 
position of yplus max: -11.9525 1.25379 0.00584242 
yplus prom: 4.48685 
forces: 2458.045227 -1.243996 -814.769378 
Drag coefficient: 0.685925 
torque (ref. CG): 1.741595 (roll) -1528.829889 (pitch) 7.588377 (yaw) 
----------------------------------------------------- 
step 109, time 0.076300, maxvel 30.000000, total vol 183256, vol(u>maxvel) 5.70995, cell count 1514096
bounding box (containing cells with vel>maxvel): xmin -12.2717 -1.72812 -0.473571, xmax 0.93875 1.72812 3.89934m 
bounding box of vehicle: xmin -12.2 -1.30015 -1.35525e-18, xmax 9.21572e-19 1.30015 3.6m 
gts area: 163.395 
yplus max: 117.376, yplus min: 0.0521202 
position of yplus max: -11.9525 1.25379 0.00584242 
yplus prom: 4.48423 
forces: 2452.894317 -1.243663 -813.915589 
Drag coefficient: 0.684487 
torque (ref. CG): 1.741128 (roll) -1530.833049 (pitch) 7.586345 (yaw) 
----------------------------------------------------- 
step 110, time 0.077000, maxvel 30.000000, total vol 183256, vol(u>maxvel) 5.69098, cell count 1509812
bounding box (containing cells with vel>maxvel): xmin -12.2717 -1.72812 -0.473571, xmax 0.938806 1.72812 3.89934m 
bounding box of vehicle: xmin -12.2 -1.30015 -1.35525e-18, xmax 9.21572e-19 1.30015 3.6m 
gts area: 163.395 
yplus max: 117.374, yplus min: 0.0498186 
position of yplus max: -11.9525 1.25379 0.00584242 
yplus prom: 4.48163 
forces: 2447.778504 -1.251208 -813.026614 
Drag coefficient: 0.683060 
torque (ref. CG): 1.751692 (roll) -1532.572439 (pitch) 7.632371 (yaw) 
----------------------------------------------------- 
step 111, time 0.077700, maxvel 30.000000, total vol 183256, vol(u>maxvel) 5.67135, cell count 1505615
bounding box (containing cells with vel>maxvel): xmin -12.2717 -1.72812 -0.473571, xmax 0.938806 1.72812 3.89934m 
bounding box of vehicle: xmin -12.2 -1.30015 -1.35525e-18, xmax 9.21572e-19 1.30015 3.6m 
gts area: 163.395 
yplus max: 117.372, yplus min: 0.0391148 
position of yplus max: -11.9525 1.25379 0.00584242 
yplus prom: 4.47907 
forces: 2442.692807 -1.257173 -812.134330 
Drag coefficient: 0.681641 
torque (ref. CG): 1.760042 (roll) -1534.249486 (pitch) 7.668753 (yaw) 
----------------------------------------------------- 
step 112, time 0.078400, maxvel 30.000000, total vol 183256, vol(u>maxvel) 5.64779, cell count 1501408
bounding box (containing cells with vel>maxvel): xmin -12.2717 -1.72812 -0.473571, xmax 0.93886 1.72812 3.89934m 
bounding box of vehicle: xmin -12.2 -1.30015 -1.35525e-18, xmax 9.21572e-19 1.30015 3.6m 
gts area: 163.395 
yplus max: 117.37, yplus min: 0.0438119 
position of yplus max: -11.9525 1.25379 0.00584242 
yplus prom: 4.47654 
forces: 2437.649219 -1.264880 -811.229997 
Drag coefficient: 0.680233 
torque (ref. CG): 1.770832 (roll) -1535.794078 (pitch) 7.715766 (yaw) 
----------------------------------------------------- 
step 113, time 0.079100, maxvel 30.000000, total vol 183256, vol(u>maxvel) 5.62722, cell count 1497167
bounding box (containing cells with vel>maxvel): xmin -12.2717 -1.72812 -0.473571, xmax 0.93886 1.72812 3.89932m 
bounding box of vehicle: xmin -12.2 -1.30015 -1.35525e-18, xmax 9.21572e-19 1.30015 3.6m 
gts area: 163.395 
yplus max: 117.368, yplus min: 0.0409525 
position of yplus max: -11.9525 1.25379 0.00584242 
yplus prom: 4.47403 
forces: 2432.654052 -1.284675 -810.292716 
Drag coefficient: 0.678839 
torque (ref. CG): 1.798545 (roll) -1537.069896 (pitch) 7.836519 (yaw) 
----------------------------------------------------- 
step 114, time 0.079800, maxvel 30.000000, total vol 183256, vol(u>maxvel) 5.60543, cell count 1493098
bounding box (containing cells with vel>maxvel): xmin -12.2717 -1.72812 -0.473571, xmax 0.999667 1.72812 3.89628m 
bounding box of vehicle: xmin -12.2 -1.30015 -1.35525e-18, xmax 9.21572e-19 1.30015 3.6m 
gts area: 163.395 
yplus max: 117.367, yplus min: 0.0389074 
position of yplus max: -11.9525 1.25379 0.00584242 
yplus prom: 4.47156 
forces: 2427.684554 -1.298224 -809.356310 
Drag coefficient: 0.677453 
torque (ref. CG): 1.817514 (roll) -1538.315117 (pitch) 7.919168 (yaw) 
----------------------------------------------------- 
step 115, time 0.080500, maxvel 30.000000, total vol 183256, vol(u>maxvel) 5.59376, cell count 1489216
bounding box (containing cells with vel>maxvel): xmin -12.2717 -1.72812 -0.473571, xmax 0.999769 1.72812 3.89628m 
bounding box of vehicle: xmin -12.2 -1.30015 -1.35525e-18, xmax 9.21572e-19 1.30015 3.6m 
gts area: 163.395 
yplus max: 117.365, yplus min: 0.0374834 
position of yplus max: -11.9525 1.25379 0.00584242 
yplus prom: 4.46912 
forces: 2422.764833 -1.311959 -808.417368 
Drag coefficient: 0.676080 
torque (ref. CG): 1.836743 (roll) -1539.475177 (pitch) 8.002950 (yaw) 
----------------------------------------------------- 
step 116, time 0.081200, maxvel 30.000000, total vol 183256, vol(u>maxvel) 5.58244, cell count 1485184
bounding box (containing cells with vel>maxvel): xmin -12.2717 -1.72812 -0.473571, xmax 0.999817 1.72812 3.89628m 
bounding box of vehicle: xmin -12.2 -1.30015 -1.35525e-18, xmax 9.21572e-19 1.30015 3.6m 
gts area: 163.395 
yplus max: 117.363, yplus min: 0.035187 
position of yplus max: -11.9525 1.25379 0.00584242 
yplus prom: 4.46671 
forces: 2417.892527 -1.332598 -807.439662 
Drag coefficient: 0.674720 
torque (ref. CG): 1.865637 (roll) -1540.332404 (pitch) 8.128846 (yaw) 
----------------------------------------------------- 
step 117, time 0.081900, maxvel 30.000000, total vol 183256, vol(u>maxvel) 5.56545, cell count 1481114
bounding box (containing cells with vel>maxvel): xmin -12.2717 -1.72812 -0.473571, xmax 0.999863 1.72812 3.89628m 
bounding box of vehicle: xmin -12.2 -1.30015 -1.35525e-18, xmax 9.21572e-19 1.30015 3.6m 
gts area: 163.395 
yplus max: 117.361, yplus min: 0.0332921 
position of yplus max: -11.9525 1.25379 0.00584242 
yplus prom: 4.46433 
forces: 2413.054372 -1.351659 -806.447225 
Drag coefficient: 0.673370 
torque (ref. CG): 1.892322 (roll) -1541.051948 (pitch) 8.245117 (yaw) 
----------------------------------------------------- 
step 118, time 0.082600, maxvel 30.000000, total vol 183256, vol(u>maxvel) 5.55119, cell count 1477110
bounding box (containing cells with vel>maxvel): xmin -12.2717 -1.72812 -0.473571, xmax 0.999863 1.72812 3.89628m 
bounding box of vehicle: xmin -12.2 -1.30015 -1.35525e-18, xmax 9.21572e-19 1.30015 3.6m 
gts area: 163.395 
yplus max: 117.36, yplus min: 0.0321057 
position of yplus max: -11.9525 1.25379 0.00584242 
yplus prom: 4.46198 
forces: 2408.258295 -1.373066 -805.443905 
Drag coefficient: 0.672032 
torque (ref. CG): 1.922292 (roll) -1541.646211 (pitch) 8.375702 (yaw) 
----------------------------------------------------- 
step 119, time 0.083300, maxvel 30.000000, total vol 183256, vol(u>maxvel) 5.53036, cell count 1472925
bounding box (containing cells with vel>maxvel): xmin -12.2717 -1.72812 -0.473571, xmax 0.999929 1.72812 3.89628m 
bounding box of vehicle: xmin -12.2 -1.30015 -1.35525e-18, xmax 9.21572e-19 1.30015 3.6m 
gts area: 163.395 
yplus max: 117.358, yplus min: 0.0319102 
position of yplus max: -11.9525 1.25379 0.00584242 
yplus prom: 4.45966 
forces: 2403.503643 -1.392676 -804.423946 
Drag coefficient: 0.670705 
torque (ref. CG): 1.949747 (roll) -1542.080969 (pitch) 8.495326 (yaw) 
----------------------------------------------------- 
step 120, time 0.084000, maxvel 30.000000, total vol 183256, vol(u>maxvel) 5.5078, cell count 1468869
bounding box (containing cells with vel>maxvel): xmin -12.2717 -1.72812 -0.473571, xmax 0.999929 1.72812 3.89628m 
bounding box of vehicle: xmin -12.2 -1.30015 -1.35525e-18, xmax 9.21572e-19 1.30015 3.6m 
gts area: 163.395 
yplus max: 117.356, yplus min: 0.0327709 
position of yplus max: -11.9525 1.25379 0.00584242 
yplus prom: 4.45738 
forces: 2398.790030 -1.412154 -803.394122 
Drag coefficient: 0.669389 
torque (ref. CG): 1.977016 (roll) -1542.398104 (pitch) 8.614141 (yaw) 
----------------------------------------------------- 
step 121, time 0.084700, maxvel 30.000000, total vol 183256, vol(u>maxvel) 5.49834, cell count 1464815
bounding box (containing cells with vel>maxvel): xmin -12.2717 -1.72812 -0.473571, xmax 0.999972 1.72812 3.89628m 
bounding box of vehicle: xmin -12.2 -1.30015 -1.35525e-18, xmax 9.21572e-19 1.30015 3.6m 
gts area: 163.395 
yplus max: 117.354, yplus min: 0.0344822 
position of yplus max: -11.9525 1.25379 0.00584242 
yplus prom: 4.45512 
forces: 2394.129243 -1.439815 -802.330394 
Drag coefficient: 0.668089 
torque (ref. CG): 2.015740 (roll) -1542.434461 (pitch) 8.782869 (yaw) 
----------------------------------------------------- 
step 122, time 0.085400, maxvel 30.000000, total vol 183256, vol(u>maxvel) 5.48588, cell count 1460633
bounding box (containing cells with vel>maxvel): xmin -12.2717 -1.72812 -0.473571, xmax 0.999972 1.72812 3.89628m 
bounding box of vehicle: xmin -12.2 -1.30015 -1.35525e-18, xmax 9.21572e-19 1.30015 3.6m 
gts area: 163.395 
yplus max: 117.353, yplus min: 0.0367282 
position of yplus max: -11.9525 1.25379 0.00584242 
yplus prom: 4.4529 
forces: 2389.503380 -1.443243 -801.310242 
Drag coefficient: 0.666798 
torque (ref. CG): 2.020540 (roll) -1542.687742 (pitch) 8.803783 (yaw) 
----------------------------------------------------- 
step 123, time 0.086100, maxvel 30.000000, total vol 183256, vol(u>maxvel) 5.47147, cell count 1456604
bounding box (containing cells with vel>maxvel): xmin -12.2717 -1.72812 -0.473571, xmax 0.999995 1.72812 3.89628m 
bounding box of vehicle: xmin -12.2 -1.30015 -1.35525e-18, xmax 9.21572e-19 1.30015 3.6m 
gts area: 163.395 
yplus max: 117.351, yplus min: 0.0392494 
position of yplus max: -11.9525 1.25379 0.00584242 
yplus prom: 4.45071 
forces: 2384.921507 -1.473607 -800.225021 
Drag coefficient: 0.665519 
torque (ref. CG): 2.063050 (roll) -1542.482515 (pitch) 8.989005 (yaw) 
----------------------------------------------------- 
step 124, time 0.086800, maxvel 30.000000, total vol 183256, vol(u>maxvel) 5.45229, cell count 1452518
bounding box (containing cells with vel>maxvel): xmin -12.2717 -1.72812 -0.473571, xmax 0.999995 1.72812 3.89627m 
[...]
----------------------------------------------------- 
step 970, time 0.679000, maxvel 30.000000, total vol 183256, vol(u>maxvel) 2.07243, cell count 960456
bounding box (containing cells with vel>maxvel): xmin -12.2716 -1.72788 -0.473571, xmax -10.6596 1.72788 3.30272m 
bounding box of vehicle: xmin -12.2 -1.30015 -1.35525e-18, xmax 9.21572e-19 1.30015 3.6m 
gts area: 163.395 
yplus max: 117.042, yplus min: 0.0561328 
position of yplus max: -11.9525 1.25379 0.00584242 
yplus prom: 3.93242 
forces: 1254.390691 -4.580180 -543.903420 
Drag coefficient: 0.350041 
torque (ref. CG): 6.412252 (roll) -1561.663897 (pitch) 27.939099 (yaw) 
----------------------------------------------------- 
step 971, time 0.679700, maxvel 30.000000, total vol 183256, vol(u>maxvel) 2.07243, cell count 960455
bounding box (containing cells with vel>maxvel): xmin -12.2716 -1.72788 -0.473571, xmax -10.6596 1.72788 3.30272m 
bounding box of vehicle: xmin -12.2 -1.30015 -1.35525e-18, xmax 9.21572e-19 1.30015 3.6m 
gts area: 163.395 
yplus max: 117.042, yplus min: 0.0653429 
position of yplus max: -11.9525 1.25379 0.00584242 
yplus prom: 3.93229 
forces: 1253.779699 -4.616668 -543.508793 
Drag coefficient: 0.349871 
torque (ref. CG): 6.463335 (roll) -1560.112059 (pitch) 28.161672 (yaw) 
----------------------------------------------------- 
step 972, time 0.680400, maxvel 30.000000, total vol 183256, vol(u>maxvel) 2.07243, cell count 960454
bounding box (containing cells with vel>maxvel): xmin -12.2716 -1.72788 -0.473571, xmax -10.6596 1.72788 3.30272m 
bounding box of vehicle: xmin -12.2 -1.30015 -1.35525e-18, xmax 9.21572e-19 1.30015 3.6m 
gts area: 163.395 
yplus max: 117.042, yplus min: 0.0451106 
position of yplus max: -11.9525 1.25379 0.00584242 
yplus prom: 3.93217 
forces: 1253.256377 -4.623538 -543.145881 
Drag coefficient: 0.349725 
torque (ref. CG): 6.472953 (roll) -1558.630947 (pitch) 28.203581 (yaw) 
----------------------------------------------------- 
step 973, time 0.681100, maxvel 30.000000, total vol 183256, vol(u>maxvel) 2.07243, cell count 960454
bounding box (containing cells with vel>maxvel): xmin -12.2716 -1.72788 -0.473571, xmax -10.6596 1.72788 3.30272m 
bounding box of vehicle: xmin -12.2 -1.30015 -1.35525e-18, xmax 9.21572e-19 1.30015 3.6m 
gts area: 163.395 
yplus max: 117.042, yplus min: 0.0369747 
position of yplus max: -11.9525 1.25379 0.00584242 
yplus prom: 3.93205 
forces: 1252.652644 -4.650713 -542.728091 
Drag coefficient: 0.349556 
torque (ref. CG): 6.510998 (roll) -1556.927651 (pitch) 28.369350 (yaw) 
----------------------------------------------------- 
step 974, time 0.681800, maxvel 30.000000, total vol 183256, vol(u>maxvel) 2.07243, cell count 960453
bounding box (containing cells with vel>maxvel): xmin -12.2716 -1.72788 -0.473571, xmax -10.6596 1.72788 3.30272m 
bounding box of vehicle: xmin -12.2 -1.30015 -1.35525e-18, xmax 9.21572e-19 1.30015 3.6m 
gts area: 163.395 
yplus max: 117.042, yplus min: 0.0578929 
position of yplus max: -11.9525 1.25379 0.00584242 
yplus prom: 3.93193 
forces: 1252.063230 -4.681800 -542.352872 
Drag coefficient: 0.349392 
torque (ref. CG): 6.554520 (roll) -1555.463995 (pitch) 28.558981 (yaw) 
----------------------------------------------------- 
step 975, time 0.682500, maxvel 30.000000, total vol 183256, vol(u>maxvel) 2.07243, cell count 960452
bounding box (containing cells with vel>maxvel): xmin -12.2716 -1.72788 -0.473571, xmax -10.6596 1.72788 3.30272m 
bounding box of vehicle: xmin -12.2 -1.30015 -1.35525e-18, xmax 9.21572e-19 1.30015 3.6m 
gts area: 163.395 
yplus max: 117.042, yplus min: 0.0542093 
position of yplus max: -11.9525 1.25379 0.00584242 
yplus prom: 3.9318 
forces: 1251.508538 -4.693124 -541.871152 
Drag coefficient: 0.349237 
torque (ref. CG): 6.570374 (roll) -1553.302073 (pitch) 28.628058 (yaw) 
----------------------------------------------------- 
step 976, time 0.683200, maxvel 30.000000, total vol 183256, vol(u>maxvel) 2.07243, cell count 960452
bounding box (containing cells with vel>maxvel): xmin -12.2716 -1.72788 -0.473571, xmax -10.6596 1.72788 3.30272m 
bounding box of vehicle: xmin -12.2 -1.30015 -1.35525e-18, xmax 9.21572e-19 1.30015 3.6m 
gts area: 163.395 
yplus max: 117.042, yplus min: 0.0841306 
position of yplus max: -11.9525 1.25379 0.00584242 
yplus prom: 3.93168 
forces: 1250.937146 -4.725147 -541.544675 
Drag coefficient: 0.349078 
torque (ref. CG): 6.615206 (roll) -1552.110514 (pitch) 28.823399 (yaw) 
----------------------------------------------------- 
step 977, time 0.683900, maxvel 30.000000, total vol 183256, vol(u>maxvel) 2.07243, cell count 960452
bounding box (containing cells with vel>maxvel): xmin -12.2716 -1.72788 -0.473571, xmax -10.6596 1.72788 3.30272m 
bounding box of vehicle: xmin -12.2 -1.30015 -1.35525e-18, xmax 9.21572e-19 1.30015 3.6m 
gts area: 163.395 
yplus max: 117.042, yplus min: 0.0636419 
position of yplus max: -11.9525 1.25379 0.00584242 
yplus prom: 3.93156 
forces: 1250.402323 -4.735055 -541.091300 
Drag coefficient: 0.348928 
torque (ref. CG): 6.629077 (roll) -1550.093678 (pitch) 28.883838 (yaw) 
----------------------------------------------------- 
step 978, time 0.684600, maxvel 30.000000, total vol 183256, vol(u>maxvel) 2.07243, cell count 960447
bounding box (containing cells with vel>maxvel): xmin -12.2716 -1.72788 -0.473571, xmax -10.6596 1.72788 3.30272m 
bounding box of vehicle: xmin -12.2 -1.30015 -1.35525e-18, xmax 9.21572e-19 1.30015 3.6m 
gts area: 163.395 
yplus max: 117.042, yplus min: 0.0762257 
position of yplus max: -11.9525 1.25379 0.00584242 
yplus prom: 3.93144 
forces: 1249.808669 -4.757592 -540.786238 
Drag coefficient: 0.348763 
torque (ref. CG): 6.660629 (roll) -1549.063917 (pitch) 29.021313 (yaw) 
----------------------------------------------------- 
step 979, time 0.685300, maxvel 30.000000, total vol 183256, vol(u>maxvel) 2.07243, cell count 960446
bounding box (containing cells with vel>maxvel): xmin -12.2716 -1.72788 -0.473571, xmax -10.6596 1.72788 3.30272m 
bounding box of vehicle: xmin -12.2 -1.30015 -1.35525e-18, xmax 9.21572e-19 1.30015 3.6m 
gts area: 163.395 
yplus max: 117.042, yplus min: 0.056337 
position of yplus max: -11.9525 1.25379 0.00584242 
yplus prom: 3.93132 
forces: 1249.191616 -4.792368 -540.360860 
Drag coefficient: 0.348591 
torque (ref. CG): 6.709315 (roll) -1547.332982 (pitch) 29.233445 (yaw) 
----------------------------------------------------- 
step 980, time 0.686000, maxvel 30.000000, total vol 183256, vol(u>maxvel) 2.07243, cell count 960445
bounding box (containing cells with vel>maxvel): xmin -12.2716 -1.72788 -0.473571, xmax -10.6596 1.72788 3.30272m 
bounding box of vehicle: xmin -12.2 -1.30015 -1.35525e-18, xmax 9.21572e-19 1.30015 3.6m 
gts area: 163.395 
yplus max: 117.042, yplus min: 0.0796407 
position of yplus max: -11.9525 1.25379 0.00584242 
yplus prom: 3.93121 
forces: 1248.698662 -4.797568 -539.974412 
Drag coefficient: 0.348453 
torque (ref. CG): 6.716596 (roll) -1545.665787 (pitch) 29.265167 (yaw) 
----------------------------------------------------- 
step 981, time 0.686700, maxvel 30.000000, total vol 183256, vol(u>maxvel) 2.07243, cell count 960445
bounding box (containing cells with vel>maxvel): xmin -12.2716 -1.72788 -0.473571, xmax -10.6596 1.72788 3.30272m 
bounding box of vehicle: xmin -12.2 -1.30015 -1.35525e-18, xmax 9.21572e-19 1.30015 3.6m 
gts area: 163.395 
yplus max: 117.042, yplus min: 0.0578496 
position of yplus max: -11.9525 1.25379 0.00584242 
yplus prom: 3.93109 
forces: 1248.095520 -4.834075 -539.534492 
Drag coefficient: 0.348285 
torque (ref. CG): 6.767706 (roll) -1543.826673 (pitch) 29.487860 (yaw) 
----------------------------------------------------- 
step 982, time 0.687400, maxvel 30.000000, total vol 183256, vol(u>maxvel) 2.07239, cell count 960443
bounding box (containing cells with vel>maxvel): xmin -12.2716 -1.72788 -0.473571, xmax -10.6596 1.72788 3.30272m 
bounding box of vehicle: xmin -12.2 -1.30015 -1.35525e-18, xmax 9.21572e-19 1.30015 3.6m 
gts area: 163.395 
yplus max: 117.042, yplus min: 0.0433235 
position of yplus max: -11.9525 1.25379 0.00584242 
yplus prom: 3.93097 
forces: 1247.560463 -4.843127 -539.128021 
Drag coefficient: 0.348135 
torque (ref. CG): 6.780378 (roll) -1542.096279 (pitch) 29.543076 (yaw) 
----------------------------------------------------- 
step 983, time 0.688100, maxvel 30.000000, total vol 183256, vol(u>maxvel) 2.07239, cell count 960440
bounding box (containing cells with vel>maxvel): xmin -12.2716 -1.72788 -0.473571, xmax -10.6596 1.72788 3.30272m 
bounding box of vehicle: xmin -12.2 -1.30015 -1.35525e-18, xmax 9.21572e-19 1.30015 3.6m 
gts area: 163.395 
yplus max: 117.042, yplus min: 0.0659099 
position of yplus max: -11.9525 1.25379 0.00584242 
yplus prom: 3.93085 
forces: 1246.960273 -4.880390 -538.755788 
Drag coefficient: 0.347968 
torque (ref. CG): 6.832545 (roll) -1540.665923 (pitch) 29.770376 (yaw) 
----------------------------------------------------- 
step 984, time 0.688800, maxvel 30.000000, total vol 183256, vol(u>maxvel) 2.07239, cell count 960440
bounding box (containing cells with vel>maxvel): xmin -12.2716 -1.72788 -0.473571, xmax -10.6596 1.72788 3.30272m 
bounding box of vehicle: xmin -12.2 -1.30015 -1.35525e-18, xmax 9.21572e-19 1.30015 3.6m 
gts area: 163.395 
yplus max: 117.042, yplus min: 0.04574 
position of yplus max: -11.9525 1.25379 0.00584242 
yplus prom: 3.93074 
forces: 1246.459814 -4.885992 -538.365390 
Drag coefficient: 0.347828 
torque (ref. CG): 6.840388 (roll) -1538.985140 (pitch) 29.804548 (yaw) 
----------------------------------------------------- 
step 985, time 0.689500, maxvel 30.000000, total vol 183256, vol(u>maxvel) 2.07239, cell count 960439
bounding box (containing cells with vel>maxvel): xmin -12.2716 -1.72788 -0.473571, xmax -10.6596 1.72788 3.30272m 
bounding box of vehicle: xmin -12.2 -1.30015 -1.35525e-18, xmax 9.21572e-19 1.30015 3.6m 
gts area: 163.395 
yplus max: 117.042, yplus min: 0.0490044 
position of yplus max: -11.9525 1.25379 0.00584242 
yplus prom: 3.93062 
forces: 1245.867377 -4.914110 -537.959602 
Drag coefficient: 0.347663 
torque (ref. CG): 6.879754 (roll) -1537.339247 (pitch) 29.976070 (yaw) 
----------------------------------------------------- 
step 986, time 0.690200, maxvel 30.000000, total vol 183256, vol(u>maxvel) 2.07239, cell count 960439
bounding box (containing cells with vel>maxvel): xmin -12.2716 -1.72788 -0.473571, xmax -10.6596 1.72788 3.30272m 
bounding box of vehicle: xmin -12.2 -1.30015 -1.35525e-18, xmax 9.21572e-19 1.30015 3.6m 
gts area: 163.395 
yplus max: 117.042, yplus min: 0.0395484 
position of yplus max: -11.9525 1.25379 0.00584242 
yplus prom: 3.93051 
forces: 1245.292444 -4.944175 -537.592338 
Drag coefficient: 0.347503 
torque (ref. CG): 6.921845 (roll) -1535.903839 (pitch) 30.159469 (yaw) 
----------------------------------------------------- 
step 987, time 0.690900, maxvel 30.000000, total vol 183256, vol(u>maxvel) 2.07236, cell count 960436
bounding box (containing cells with vel>maxvel): xmin -12.2716 -1.72788 -0.473571, xmax -10.6596 1.72788 3.30272m 
bounding box of vehicle: xmin -12.2 -1.30015 -1.35525e-18, xmax 9.21572e-19 1.30015 3.6m 
gts area: 163.395 
yplus max: 117.042, yplus min: 0.0402715 
position of yplus max: -11.9525 1.25379 0.00584242 
yplus prom: 3.93039 
forces: 1244.775145 -4.951317 -537.127296 
Drag coefficient: 0.347358 
torque (ref. CG): 6.931844 (roll) -1533.791304 (pitch) 30.203037 (yaw) 
----------------------------------------------------- 
step 988, time 0.691600, maxvel 30.000000, total vol 183256, vol(u>maxvel) 2.07236, cell count 960436
bounding box (containing cells with vel>maxvel): xmin -12.2716 -1.72788 -0.473571, xmax -10.6596 1.72788 3.30272m 
bounding box of vehicle: xmin -12.2 -1.30015 -1.35525e-18, xmax 9.21572e-19 1.30015 3.6m 
gts area: 163.395 
yplus max: 117.042, yplus min: 0.0359321 
position of yplus max: -11.9525 1.25379 0.00584242 
yplus prom: 3.93028 
forces: 1244.194865 -4.985485 -536.796666 
Drag coefficient: 0.347196 
torque (ref. CG): 6.979679 (roll) -1532.586853 (pitch) 30.411460 (yaw) 
----------------------------------------------------- 
step 989, time 0.692300, maxvel 30.000000, total vol 183256, vol(u>maxvel) 2.07235, cell count 960434
bounding box (containing cells with vel>maxvel): xmin -12.2716 -1.72788 -0.473571, xmax -10.6596 1.72788 3.30272m 
bounding box of vehicle: xmin -12.2 -1.30015 -1.35525e-18, xmax 9.21572e-19 1.30015 3.6m 
gts area: 163.395 
yplus max: 117.042, yplus min: 0.0486861 
position of yplus max: -11.9525 1.25379 0.00584242 
yplus prom: 3.93017 
forces: 1243.664293 -4.997387 -536.351692 
Drag coefficient: 0.347048 
torque (ref. CG): 6.996342 (roll) -1530.615308 (pitch) 30.484062 (yaw) 
----------------------------------------------------- 
step 990, time 0.693000, maxvel 30.000000, total vol 183256, vol(u>maxvel) 2.07235, cell count 960434
bounding box (containing cells with vel>maxvel): xmin -12.2716 -1.72788 -0.473571, xmax -10.6596 1.72788 3.30272m 
bounding box of vehicle: xmin -12.2 -1.30015 -1.35525e-18, xmax 9.21572e-19 1.30015 3.6m 
gts area: 163.395 
yplus max: 117.042, yplus min: 0.0498095 
position of yplus max: -11.9525 1.25379 0.00584242 
yplus prom: 3.93005 
forces: 1243.083422 -5.029853 -535.935827 
Drag coefficient: 0.346886 
torque (ref. CG): 7.041795 (roll) -1528.891757 (pitch) 30.682105 (yaw) 
----------------------------------------------------- 
step 991, time 0.693700, maxvel 30.000000, total vol 183256, vol(u>maxvel) 2.07235, cell count 960433
bounding box (containing cells with vel>maxvel): xmin -12.2716 -1.72788 -0.473571, xmax -10.6596 1.72788 3.30272m 
bounding box of vehicle: xmin -12.2 -1.30015 -1.35525e-18, xmax 9.21572e-19 1.30015 3.6m 
gts area: 163.395 
yplus max: 117.042, yplus min: 0.0404662 
position of yplus max: -11.9525 1.25379 0.00584242 
yplus prom: 3.92994 
forces: 1242.587938 -5.039748 -535.572876 
Drag coefficient: 0.346748 
torque (ref. CG): 7.055647 (roll) -1527.371432 (pitch) 30.742462 (yaw) 
----------------------------------------------------- 
step 992, time 0.694400, maxvel 30.000000, total vol 183256, vol(u>maxvel) 2.07232, cell count 960432
bounding box (containing cells with vel>maxvel): xmin -12.2716 -1.72788 -0.473571, xmax -10.6596 1.72788 3.30272m 
bounding box of vehicle: xmin -12.2 -1.30015 -1.35525e-18, xmax 9.21572e-19 1.30015 3.6m 
gts area: 163.395 
yplus max: 117.042, yplus min: 0.0543998 
position of yplus max: -11.9525 1.25379 0.00584242 
yplus prom: 3.92983 
forces: 1242.008181 -5.065791 -535.165203 
Drag coefficient: 0.346586 
torque (ref. CG): 7.092108 (roll) -1525.696285 (pitch) 30.901328 (yaw) 
----------------------------------------------------- 
step 993, time 0.695100, maxvel 30.000000, total vol 183256, vol(u>maxvel) 2.07232, cell count 960432
bounding box (containing cells with vel>maxvel): xmin -12.2716 -1.72788 -0.473571, xmax -10.6596 1.72788 3.30272m 
bounding box of vehicle: xmin -12.2 -1.30015 -1.35525e-18, xmax 9.21572e-19 1.30015 3.6m 
gts area: 163.395 
yplus max: 117.042, yplus min: 0.028996 
position of yplus max: -11.9525 1.25379 0.00584242 
yplus prom: 3.92972 
forces: 1241.447255 -5.092601 -534.809923 
Drag coefficient: 0.346430 
torque (ref. CG): 7.129641 (roll) -1524.314373 (pitch) 31.064865 (yaw) 
----------------------------------------------------- 
step 994, time 0.695800, maxvel 30.000000, total vol 183256, vol(u>maxvel) 2.07232, cell count 960430
bounding box (containing cells with vel>maxvel): xmin -12.2716 -1.72788 -0.473571, xmax -10.6596 1.72788 3.30272m 
bounding box of vehicle: xmin -12.2 -1.30015 -1.35525e-18, xmax 9.21572e-19 1.30015 3.6m 
gts area: 163.395 
yplus max: 117.042, yplus min: 0.0548008 
position of yplus max: -11.9525 1.25379 0.00584242 
yplus prom: 3.92961 
forces: 1240.935947 -5.103342 -534.351608 
Drag coefficient: 0.346287 
torque (ref. CG): 7.144679 (roll) -1522.234485 (pitch) 31.130386 (yaw) 
----------------------------------------------------- 
step 995, time 0.696500, maxvel 30.000000, total vol 183256, vol(u>maxvel) 2.07232, cell count 960430
bounding box (containing cells with vel>maxvel): xmin -12.2716 -1.72788 -0.473571, xmax -10.6596 1.72788 3.30272m 
bounding box of vehicle: xmin -12.2 -1.30015 -1.35525e-18, xmax 9.21572e-19 1.30015 3.6m 
gts area: 163.395 
yplus max: 117.042, yplus min: 0.0590479 
position of yplus max: -11.9525 1.25379 0.00584242 
yplus prom: 3.9295 
forces: 1240.360004 -5.136842 -533.938698 
Drag coefficient: 0.346126 
torque (ref. CG): 7.191578 (roll) -1520.522053 (pitch) 31.334734 (yaw) 
----------------------------------------------------- 
step 996, time 0.697200, maxvel 30.000000, total vol 183256, vol(u>maxvel) 2.07232, cell count 960430
bounding box (containing cells with vel>maxvel): xmin -12.2716 -1.72788 -0.473571, xmax -10.6596 1.72788 3.30272m 
bounding box of vehicle: xmin -12.2 -1.30015 -1.35525e-18, xmax 9.21572e-19 1.30015 3.6m 
gts area: 163.395 
yplus max: 117.042, yplus min: 0.0457514 
position of yplus max: -11.9525 1.25379 0.00584242 
yplus prom: 3.92939 
forces: 1239.870802 -5.146675 -533.571794 
Drag coefficient: 0.345990 
torque (ref. CG): 7.205345 (roll) -1518.968819 (pitch) 31.394719 (yaw) 
----------------------------------------------------- 
step 997, time 0.697900, maxvel 30.000000, total vol 183256, vol(u>maxvel) 2.07232, cell count 960428
bounding box (containing cells with vel>maxvel): xmin -12.2716 -1.72788 -0.473571, xmax -10.6596 1.72788 3.30272m 
bounding box of vehicle: xmin -12.2 -1.30015 -1.35525e-18, xmax 9.21572e-19 1.30015 3.6m 
gts area: 163.395 
yplus max: 117.042, yplus min: 0.0421685 
position of yplus max: -11.9525 1.25379 0.00584242 
yplus prom: 3.92929 
forces: 1239.299429 -5.172115 -533.163179 
Drag coefficient: 0.345830 
torque (ref. CG): 7.240962 (roll) -1517.276194 (pitch) 31.549904 (yaw) 
----------------------------------------------------- 
step 998, time 0.698600, maxvel 30.000000, total vol 183256, vol(u>maxvel) 2.07232, cell count 960426
bounding box (containing cells with vel>maxvel): xmin -12.2716 -1.72788 -0.473571, xmax -10.6596 1.72788 3.30272m 
bounding box of vehicle: xmin -12.2 -1.30015 -1.35525e-18, xmax 9.21572e-19 1.30015 3.6m 
gts area: 163.395 
yplus max: 117.042, yplus min: 0.0240432 
position of yplus max: -11.9525 1.25379 0.00584242 
yplus prom: 3.92918 
forces: 1238.750637 -5.196309 -532.799327 
Drag coefficient: 0.345677 
torque (ref. CG): 7.274833 (roll) -1515.825003 (pitch) 31.697486 (yaw) 
----------------------------------------------------- 
step 999, time 0.699300, maxvel 30.000000, total vol 183256, vol(u>maxvel) 2.07232, cell count 960426
bounding box (containing cells with vel>maxvel): xmin -12.2716 -1.72788 -0.473571, xmax -10.6596 1.72788 3.30272m 
bounding box of vehicle: xmin -12.2 -1.30015 -1.35525e-18, xmax 9.21572e-19 1.30015 3.6m 
gts area: 163.395 
yplus max: 117.042, yplus min: 0.0492233 
position of yplus max: -11.9525 1.25379 0.00584242 
yplus prom: 3.92907 
forces: 1238.245270 -5.209847 -532.350716 
Drag coefficient: 0.345536 
torque (ref. CG): 7.293786 (roll) -1513.795990 (pitch) 31.780069 (yaw) 
----------------------------------------------------- 
step 1000, time 0.700000, maxvel 30.000000, total vol 183256, vol(u>maxvel) 2.07232, cell count 960425
bounding box (containing cells with vel>maxvel): xmin -12.2716 -1.72788 -0.473571, xmax -10.6596 1.72788 3.30272m 
bounding box of vehicle: xmin -12.2 -1.30015 -1.35525e-18, xmax 9.21572e-19 1.30015 3.6m 
gts area: 163.395 
yplus max: 117.042, yplus min: 0.0728016 
position of yplus max: -11.9525 1.25379 0.00584242 
yplus prom: 3.92897 
forces: 1237.683258 -5.239558 -532.001188 
Drag coefficient: 0.345379 
torque (ref. CG): 7.335382 (roll) -1512.450686 (pitch) 31.961306 (yaw) 
----------------------------------------------------- 

 *****************************
  Post-calculation operations
 *****************************

Ends run at lun ago 22 22:34:54 ART 2022
