Start run at mar ago 23 01:35:37 ART 2022
PYTHON_CS_XFLAGS=' -O0 -g3 -ggdb3 -I/usr/include/jsoncpp ' /share/storage/pub/mstorti/saturne-vof/bin/code_saturne  run --param setup.xml

The following have been reloaded with a version change:
  1) llvm/6.0.0 => llvm/3.4.2


The following have been reloaded with a version change:
  1) llvm/3.4.2 => llvm/6.0.0


                      Code_Saturne
                      ************

 Version:   6.1-alpha
 Path:      /share/storage/pub/mstorti/saturne-vof

 Result directory:
   /share/storage/finzeo/GTS_Tunay_2/RESU/20220823-0135


 ****************************************
  Compiling user subroutines and linking
 ****************************************


 ****************************
  Preparing calculation data
 ****************************

 Parallel Code_Saturne on 140 processes.


 ***************************
  Preprocessing calculation
 ***************************


 **********************
  Starting calculation
 **********************

Warning: Process to core binding is enabled and OMP_NUM_THREADS is set to non-zero (1) value
If your program has OpenMP sections, this can cause over-subscription of cores and consequently poor performance
To avoid this, please re-run your application after setting MV2_ENABLE_AFFINITY=0
Use MV2_USE_THREAD_WARNING=0 to suppress this message

===================================================================================
=   BAD TERMINATION OF ONE OF YOUR APPLICATION PROCESSES
=   PID 55917 RUNNING AT compute-0-1
=   EXIT CODE: 1
=   CLEANING UP REMAINING PROCESSES
=   YOU CAN IGNORE THE BELOW CLEANUP MESSAGES
===================================================================================
[proxy:0:3@compute-0-4.local] HYD_pmcd_pmip_control_cmd_cb (pm/pmiserv/pmip_cb.c:909): assert (!closed) failed
[proxy:0:3@compute-0-4.local] HYDT_dmxu_poll_wait_for_event (tools/demux/demux_poll.c:76): callback returned error status
[proxy:0:3@compute-0-4.local] main (pm/pmiserv/pmip.c:206): demux engine error waiting for event
[proxy:0:4@compute-0-5.local] HYD_pmcd_pmip_control_cmd_cb (pm/pmiserv/pmip_cb.c:909): assert (!closed) failed
[proxy:0:4@compute-0-5.local] HYDT_dmxu_poll_wait_for_event (tools/demux/demux_poll.c:76): callback returned error status
[proxy:0:4@compute-0-5.local] main (pm/pmiserv/pmip.c:206): demux engine error waiting for event
[proxy:0:5@compute-0-10.local] HYD_pmcd_pmip_control_cmd_cb (pm/pmiserv/pmip_cb.c:909): assert (!closed) failed
[proxy:0:5@compute-0-10.local] HYDT_dmxu_poll_wait_for_event (tools/demux/demux_poll.c:76): callback returned error status
[proxy:0:5@compute-0-10.local] main (pm/pmiserv/pmip.c:206): demux engine error waiting for event
[proxy:0:2@compute-0-3.local] HYD_pmcd_pmip_control_cmd_cb (pm/pmiserv/pmip_cb.c:909): assert (!closed) failed
[proxy:0:2@compute-0-3.local] HYDT_dmxu_poll_wait_for_event (tools/demux/demux_poll.c:76): callback returned error status
[proxy:0:2@compute-0-3.local] main (pm/pmiserv/pmip.c:206): demux engine error waiting for event
[proxy:0:6@compute-0-11.local] HYD_pmcd_pmip_control_cmd_cb (pm/pmiserv/pmip_cb.c:909): assert (!closed) failed
[proxy:0:6@compute-0-11.local] HYDT_dmxu_poll_wait_for_event (tools/demux/demux_poll.c:76): callback returned error status
[proxy:0:6@compute-0-11.local] main (pm/pmiserv/pmip.c:206): demux engine error waiting for event
[proxy:0:1@compute-0-2.local] HYD_pmcd_pmip_control_cmd_cb (pm/pmiserv/pmip_cb.c:909): assert (!closed) failed
[proxy:0:1@compute-0-2.local] HYDT_dmxu_poll_wait_for_event (tools/demux/demux_poll.c:76): callback returned error status
[proxy:0:1@compute-0-2.local] main (pm/pmiserv/pmip.c:206): demux engine error waiting for event
srun: error: compute-0-2: task 1: Exited with exit code 7
srun: error: compute-0-11: task 6: Exited with exit code 7
srun: error: compute-0-3: task 2: Exited with exit code 7
srun: error: compute-0-5: task 4: Exited with exit code 7
srun: error: compute-0-4: task 3: Exited with exit code 7
srun: error: compute-0-10: task 5: Exited with exit code 7
[mpiexec@compute-0-1.local] HYDT_bscu_wait_for_completion